electric-grid/synthetic/sc500/SouthCarolina500.m
% Case saved by PowerWorld Simulator, version 20 Beta, build date March 13, 2017
function mpc = SouthCarolina500
mpc.version = '2';
mpc.baseMVA =  100.00;

%% bus data 
mpc.bus = [
1	1	0.00	0.00	0.00	0.00	1	1.0121698	-7.292752	138.00	2	1.100	0.900	24.43	-0.01	0	0
2	1	42.80	11.41	0.00	0.00	1	1.0115901	-7.364558	138.00	2	1.100	0.900	24.43	-0.01	0	0
3	1	0.00	0.00	0.00	0.00	1	1.0062368	-8.595016	138.00	2	1.100	0.900	24.43	-0.00	0	0
4	1	132.69	35.38	0.00	0.00	1	1.0040728	-8.845873	138.00	2	1.100	0.900	24.43	-0.00	0	0
5	1	0.00	0.00	0.00	0.00	1	1.0148661	2.141622	138.00	1	1.100	0.900	12.61	0.73	0	0
6	1	3.21	0.86	0.00	0.00	1	1.0148184	2.135518	138.00	1	1.100	0.900	12.61	0.73	0	0
7	1	0.00	0.00	0.00	0.00	1	1.0338692	-3.454433	345.00	2	1.100	0.900	24.43	-0.00	0	0
8	1	0.00	0.00	0.00	0.00	1	1.0269704	-5.235297	138.00	2	1.100	0.900	24.43	-0.01	0	0
9	2	0.00	0.00	0.00	0.00	1	1.0400000	-0.655940	13.80	2	1.100	0.900	24.43	0.00	0	0
10	1	0.00	0.00	0.00	0.00	1	1.0167297	-10.329334	138.00	2	1.100	0.900	24.42	-0.03	0	0
11	1	2.47	0.66	0.00	0.00	1	1.0166930	-10.333481	138.00	2	1.100	0.900	24.42	-0.03	0	0
12	1	0.00	0.00	0.00	0.00	1	0.9918219	-11.062240	138.00	1	1.100	0.900	24.25	-0.01	0	0
13	1	37.16	9.91	0.00	0.00	1	0.9912744	-11.126515	138.00	1	1.100	0.900	24.25	-0.01	0	0
14	1	0.00	0.00	0.00	0.00	1	1.0300943	0.068827	345.00	1	1.100	0.900	24.14	0.00	0	0
15	1	0.00	0.00	0.00	0.00	1	1.0213900	-2.551455	138.00	1	1.100	0.900	24.14	0.00	0	0
16	2	0.00	0.00	0.00	0.00	1	1.0400000	2.912436	13.80	1	1.100	0.900	24.14	0.00	0	0
17	3	0.00	0.00	0.00	0.00	1	1.0400000	3.474048	13.80	1	1.100	0.900	24.14	0.00	0	0
18	2	0.00	0.00	0.00	0.00	1	1.0400000	4.367797	13.80	1	1.100	0.900	24.14	0.00	0	0
19	1	0.00	0.00	0.00	0.00	1	1.0183660	-10.796902	138.00	2	1.100	0.900	24.38	-0.01	0	0
20	1	4.54	1.21	0.00	0.00	1	1.0182956	-10.806292	138.00	2	1.100	0.900	24.38	-0.01	0	0
21	1	0.00	0.00	0.00	0.00	1	1.0095419	-8.858856	138.00	2	1.100	0.900	24.42	-0.01	0	0
22	1	148.70	39.65	0.00	0.00	1	1.0074160	-9.111627	138.00	2	1.100	0.900	24.42	-0.01	0	0
23	1	0.00	0.00	0.00	0.00	1	1.0273104	-4.460516	345.00	1	1.100	0.900	23.94	0.01	0	0
24	1	0.00	0.00	0.00	0.00	1	1.0123575	-7.345727	138.00	1	1.100	0.900	23.96	0.01	0	0
25	1	2.28	0.61	0.00	0.00	1	1.0123218	-7.350150	138.00	1	1.100	0.900	23.96	0.01	0	0
26	1	21.66	5.78	0.00	0.00	1	1.0120238	-7.389089	138.00	1	1.100	0.900	23.96	0.01	0	0
27	1	0.00	0.00	0.00	50.00	1	1.0132313	-13.077732	138.00	1	1.100	0.900	24.77	-0.20	0	0
28	1	62.93	16.78	0.00	0.00	1	1.0121446	-13.210629	138.00	1	1.100	0.900	24.77	-0.20	0	0
29	1	0.00	0.00	0.00	0.00	1	1.0094428	-11.107322	138.00	2	1.100	0.900	24.43	-0.01	0	0
30	1	99.97	26.66	0.00	0.00	1	1.0079543	-11.283761	138.00	2	1.100	0.900	24.43	-0.01	0	0
31	1	0.00	0.00	0.00	100.00	1	1.0324654	-13.545102	138.00	2	1.100	0.900	24.35	-0.01	0	0
32	1	9.76	2.60	0.00	0.00	1	1.0323197	-13.562228	138.00	2	1.100	0.900	24.35	-0.01	0	0
33	1	0.00	0.00	0.00	0.00	1	1.0062239	-11.732164	138.00	2	1.100	0.900	24.41	-0.02	0	0
34	1	25.00	6.67	0.00	0.00	1	1.0058508	-11.776277	138.00	2	1.100	0.900	24.41	-0.02	0	0
35	1	0.00	0.00	0.00	0.00	1	1.0176654	-12.374649	138.00	2	1.100	0.900	24.35	-0.00	0	0
36	1	43.35	11.56	0.00	0.00	1	1.0170718	-12.443631	138.00	2	1.100	0.900	24.35	-0.00	0	0
37	1	0.00	0.00	0.00	0.00	1	1.0194635	2.515492	138.00	1	1.100	0.900	19.18	0.49	0	0
38	1	0.13	0.03	0.00	0.00	1	1.0194615	2.515231	138.00	1	1.100	0.900	19.18	0.49	0	0
39	1	0.00	0.00	0.00	0.00	1	1.0295491	-4.337351	345.00	1	1.100	0.900	23.87	0.02	0	0
40	1	0.00	0.00	0.00	0.00	1	1.0230935	-5.544633	138.00	1	1.100	0.900	23.87	0.02	0	0
41	1	57.99	15.46	0.00	0.00	1	1.0221398	-5.663918	138.00	1	1.100	0.900	23.87	0.02	0	0
42	1	0.00	0.00	0.00	0.00	1	1.0241285	-10.118250	138.00	2	1.100	0.900	24.33	-0.00	0	0
43	1	4.46	1.19	0.00	0.00	1	1.0240687	-10.125499	138.00	2	1.100	0.900	24.33	-0.00	0	0
44	1	0.00	0.00	0.00	0.00	1	1.0183507	-6.304916	138.00	2	1.100	0.900	24.43	-0.01	0	0
45	1	2.03	0.54	0.00	0.00	1	1.0183174	-6.309076	138.00	2	1.100	0.900	24.43	-0.01	0	0
46	1	0.00	0.00	0.00	0.00	1	1.0041684	-9.706521	138.00	1	1.100	0.900	23.92	0.01	0	0
47	1	43.41	11.58	0.00	0.00	1	1.0035085	-9.787813	138.00	1	1.100	0.900	23.92	0.01	0	0
48	1	0.00	0.00	0.00	0.00	1	1.0009610	-14.274961	138.00	1	1.100	0.900	24.24	-0.00	0	0
49	2	0.00	0.00	0.00	0.00	1	1.0028100	-14.072881	13.80	1	1.100	0.900	24.24	-0.00	0	0
50	2	0.00	0.00	0.00	0.00	1	1.0031133	-14.037239	13.80	1	1.100	0.900	24.24	-0.00	0	0
51	1	0.35	0.09	0.00	0.00	1	1.0009552	-14.275669	138.00	1	1.100	0.900	24.24	-0.00	0	0
52	1	23.39	6.24	0.00	0.00	1	1.0006075	-14.317466	138.00	1	1.100	0.900	24.24	-0.00	0	0
53	1	0.00	0.00	0.00	0.00	1	1.0165413	-9.773880	138.00	2	1.100	0.900	24.43	-0.01	0	0
54	1	34.81	9.28	0.00	0.00	1	1.0160280	-9.829491	138.00	2	1.100	0.900	24.43	-0.01	0	0
55	1	0.00	0.00	0.00	0.00	1	1.0191402	-9.690781	138.00	1	1.100	0.900	24.31	-0.01	0	0
56	1	2.25	0.60	0.00	0.00	1	1.0191065	-9.694682	138.00	1	1.100	0.900	24.31	-0.01	0	0
57	1	0.00	0.00	0.00	0.00	1	1.0102475	-6.150022	345.00	1	1.100	0.900	24.22	-0.01	0	0
58	1	0.00	0.00	0.00	0.00	1	1.0019893	-8.970641	138.00	1	1.100	0.900	24.24	-0.01	0	0
59	1	140.94	37.58	0.00	0.00	1	0.9996543	-9.267558	138.00	1	1.100	0.900	24.24	-0.01	0	0
60	1	0.00	0.00	0.00	0.00	1	1.0195591	-6.104997	138.00	1	1.100	0.900	23.88	0.02	0	0
61	1	0.20	0.05	0.00	0.00	1	1.0195561	-6.105377	138.00	1	1.100	0.900	23.88	0.02	0	0
62	1	0.00	0.00	0.00	0.00	1	1.0098116	-8.434965	138.00	1	1.100	0.900	24.43	-0.00	0	0
63	2	0.00	0.00	0.00	0.00	1	1.0098116	-8.434965	13.80	1	1.100	0.900	24.43	-0.00	0	0
64	1	34.78	9.27	0.00	0.00	1	1.0092824	-8.495522	138.00	1	1.100	0.900	24.43	-0.00	0	0
65	1	0.00	0.00	0.00	0.00	1	1.0254115	-7.156160	345.00	1	1.100	0.900	24.31	-0.01	0	0
66	1	0.00	0.00	0.00	0.00	1	1.0213159	-8.854026	138.00	1	1.100	0.900	24.30	-0.01	0	0
67	1	4.57	1.22	0.00	0.00	1	1.0212462	-8.862013	138.00	1	1.100	0.900	24.30	-0.01	0	0
68	1	0.00	0.00	0.00	0.00	1	1.0095945	-10.090655	138.00	1	1.100	0.900	25.02	-0.26	0	0
69	1	16.96	4.52	0.00	0.00	1	1.0093027	-10.127086	138.00	1	1.100	0.900	25.02	-0.26	0	0
70	1	0.00	0.00	0.00	0.00	1	0.9952231	-11.369091	138.00	1	1.100	0.900	24.33	-0.03	0	0
71	2	0.00	0.00	0.00	0.00	1	0.9959526	-11.266604	13.80	1	1.100	0.900	24.33	-0.03	0	0
72	2	0.00	0.00	0.00	0.00	1	0.9963937	-11.203047	13.80	1	1.100	0.900	24.33	-0.03	0	0
73	2	0.00	0.00	0.00	0.00	1	0.9968667	-11.152281	13.80	1	1.100	0.900	24.33	-0.03	0	0
74	1	0.00	0.00	0.00	0.00	1	1.0250482	-13.384749	138.00	2	1.100	0.900	24.36	-0.01	0	0
75	1	5.30	1.41	0.00	0.00	1	1.0249719	-13.393951	138.00	2	1.100	0.900	24.36	-0.01	0	0
76	1	0.00	0.00	0.00	0.00	1	1.0179378	3.392810	138.00	1	1.100	0.900	17.71	0.58	0	0
77	1	6.95	1.85	0.00	0.00	1	1.0178300	3.380789	138.00	1	1.100	0.900	17.71	0.58	0	0
78	1	0.00	0.00	0.00	0.00	1	1.0126626	-4.970777	138.00	1	1.100	0.900	24.16	0.00	0	0
79	1	0.38	0.10	0.00	0.00	1	1.0126570	-4.971439	138.00	1	1.100	0.900	24.16	0.00	0	0
80	1	0.00	0.00	0.00	0.00	1	1.0318844	-6.691338	345.00	2	1.100	0.900	24.33	-0.00	0	0
81	1	0.00	0.00	0.00	0.00	1	1.0262073	-9.277308	138.00	2	1.100	0.900	24.33	-0.00	0	0
82	2	0.00	0.00	0.00	0.00	1	1.0400000	-0.674854	13.80	2	1.100	0.900	24.33	0.00	0	0
83	1	0.00	0.00	0.00	0.00	1	1.0043072	-12.128203	138.00	2	1.100	0.900	24.41	-0.02	0	0
84	1	61.41	16.38	0.00	0.00	1	1.0033182	-12.249896	138.00	2	1.100	0.900	24.41	-0.02	0	0
85	1	0.00	0.00	0.00	0.00	1	1.0261623	-12.363804	138.00	2	1.100	0.900	24.36	-0.01	0	0
86	1	17.59	4.69	0.00	0.00	1	1.0258718	-12.399491	138.00	2	1.100	0.900	24.36	-0.01	0	0
87	1	0.00	0.00	0.00	0.00	1	1.0011574	4.158676	138.00	1	1.100	0.900	3.97	-0.61	0	0
88	1	5.25	1.40	0.00	0.00	1	1.0010748	4.148458	138.00	1	1.100	0.900	3.97	-0.61	0	0
89	1	0.00	0.00	0.00	0.00	1	1.0178133	-7.650794	138.00	2	1.100	0.900	24.43	-0.01	0	0
90	1	5.90	1.57	0.00	0.00	1	1.0177214	-7.662924	138.00	2	1.100	0.900	24.43	-0.01	0	0
91	1	0.00	0.00	0.00	0.00	1	1.0117641	-4.102061	138.00	1	1.100	0.900	24.14	0.00	0	0
92	1	65.03	17.34	0.00	0.00	1	1.0107733	-4.228292	138.00	1	1.100	0.900	24.14	0.00	0	0
93	1	0.00	0.00	0.00	0.00	1	1.0154965	-2.983319	138.00	2	1.100	0.900	25.54	-0.38	0	0
94	1	5.21	1.39	0.00	0.00	1	1.0154240	-2.992412	138.00	2	1.100	0.900	25.54	-0.38	0	0
95	1	0.00	0.00	0.00	0.00	1	1.0121837	-4.069760	138.00	1	1.100	0.900	24.15	-0.00	0	0
96	1	34.00	9.07	0.00	0.00	1	1.0117025	-4.128795	138.00	1	1.100	0.900	24.15	-0.00	0	0
97	1	0.00	0.00	0.00	0.00	1	1.0046761	-14.693085	138.00	1	1.100	0.900	24.21	0.00	0	0
98	1	37.09	9.89	0.00	0.00	1	1.0040723	-14.773864	138.00	1	1.100	0.900	24.21	0.00	0	0
99	1	0.00	0.00	0.00	0.00	1	1.0222120	-5.694555	138.00	1	1.100	0.900	24.06	-0.01	0	0
100	1	13.52	3.61	0.00	0.00	1	1.0219989	-5.720127	138.00	1	1.100	0.900	24.06	-0.01	0	0
101	1	0.89	0.24	0.00	0.00	1	1.0221983	-5.696073	138.00	1	1.100	0.900	24.06	-0.01	0	0
102	1	0.00	0.00	0.00	0.00	1	1.0029464	-13.120671	138.00	1	1.100	0.900	24.27	-0.01	0	0
103	1	38.80	10.35	0.00	0.00	1	1.0023077	-13.202725	138.00	1	1.100	0.900	24.27	-0.01	0	0
104	1	0.00	0.00	0.00	0.00	1	1.0184142	-13.946336	138.00	2	1.100	0.900	24.35	-0.00	0	0
105	1	80.33	21.42	0.00	0.00	1	1.0170891	-14.105046	138.00	2	1.100	0.900	24.35	-0.00	0	0
106	1	0.00	0.00	0.00	0.00	1	1.0202871	-11.273091	138.00	2	1.100	0.900	24.36	-0.01	0	0
107	1	16.01	4.27	0.00	0.00	1	1.0200627	-11.299992	138.00	2	1.100	0.900	24.36	-0.01	0	0
108	1	0.00	0.00	0.00	0.00	1	1.0151481	-6.628576	138.00	1	1.100	0.900	23.95	0.01	0	0
109	1	47.58	12.69	0.00	0.00	1	1.0144622	-6.703604	138.00	1	1.100	0.900	23.95	0.01	0	0
110	1	0.00	0.00	0.00	50.00	1	1.0274051	-1.483451	138.00	1	1.100	0.900	15.68	0.73	0	0
111	1	62.29	16.61	0.00	0.00	1	1.0264830	-1.604187	138.00	1	1.100	0.900	15.68	0.73	0	0
112	1	0.00	0.00	0.00	0.00	1	1.0140999	-10.274984	138.00	2	1.100	0.900	24.40	-0.01	0	0
113	1	45.99	12.26	0.00	0.00	1	1.0134291	-10.350557	138.00	2	1.100	0.900	24.40	-0.01	0	0
114	1	0.00	0.00	0.00	0.00	1	1.0191588	-12.782173	138.00	2	1.100	0.900	24.35	-0.00	0	0
115	1	5.06	1.35	0.00	0.00	1	1.0190891	-12.791178	138.00	2	1.100	0.900	24.35	-0.00	0	0
116	1	3.10	0.83	0.00	0.00	1	1.0191157	-12.787773	138.00	2	1.100	0.900	24.35	-0.00	0	0
117	1	0.00	0.00	0.00	0.00	1	1.0045358	-10.440633	138.00	1	1.100	0.900	24.39	-0.04	0	0
118	1	8.83	2.36	0.00	0.00	1	1.0043897	-10.459100	138.00	1	1.100	0.900	24.39	-0.04	0	0
119	1	0.00	0.00	0.00	0.00	1	0.9871138	-11.917873	138.00	1	1.100	0.900	24.20	-0.01	0	0
120	1	31.65	8.44	0.00	0.00	1	0.9866733	-11.972067	138.00	1	1.100	0.900	24.20	-0.01	0	0
121	1	0.00	0.00	0.00	0.00	1	1.0129162	-10.493538	138.00	2	1.100	0.900	24.43	-0.01	0	0
122	1	53.36	14.23	0.00	0.00	1	1.0120809	-10.603845	138.00	2	1.100	0.900	24.43	-0.01	0	0
123	1	0.00	0.00	0.00	0.00	1	1.0300924	-0.277505	345.00	1	1.100	0.900	24.16	-0.00	0	0
124	1	0.00	0.00	0.00	0.00	1	1.0276545	-0.980921	138.00	1	1.100	0.900	24.16	-0.00	0	0
125	2	0.00	0.00	0.00	0.00	1	1.0300924	-0.277505	13.80	1	1.100	0.900	24.16	-0.00	0	0
126	2	0.00	0.00	0.00	0.00	1	1.0300924	-0.277505	13.80	1	1.100	0.900	24.16	-0.00	0	0
127	2	0.00	0.00	0.00	0.00	1	1.0400000	3.872702	13.80	1	1.100	0.900	24.16	0.00	0	0
128	2	0.00	0.00	0.00	0.00	1	1.0395329	1.091191	13.80	1	1.100	0.900	24.16	-0.00	0	0
129	1	0.00	0.00	0.00	0.00	1	0.9842219	-12.434626	138.00	1	1.100	0.900	24.23	-0.01	0	0
130	1	103.24	27.53	0.00	0.00	1	0.9825808	-12.620261	138.00	1	1.100	0.900	24.23	-0.01	0	0
131	1	0.00	0.00	0.00	0.00	1	1.0202726	-5.976244	138.00	1	1.100	0.900	23.88	0.02	0	0
132	1	25.20	6.72	0.00	0.00	1	1.0198676	-6.023923	138.00	1	1.100	0.900	23.88	0.02	0	0
133	1	0.00	0.00	0.00	0.00	1	1.0129144	-4.028597	138.00	1	1.100	0.900	24.14	0.00	0	0
134	1	42.65	11.37	0.00	0.00	1	1.0123504	-4.098777	138.00	1	1.100	0.900	24.14	0.00	0	0
135	1	0.00	0.00	0.00	0.00	1	1.0152767	-7.851748	138.00	2	1.100	0.900	24.43	-0.01	0	0
136	1	26.76	7.14	0.00	0.00	1	1.0148742	-7.904033	138.00	2	1.100	0.900	24.43	-0.01	0	0
137	1	0.00	0.00	0.00	0.00	1	1.0068454	-10.557650	138.00	1	1.100	0.900	24.43	-0.04	0	0
138	1	78.71	20.99	0.00	0.00	1	1.0056159	-10.719761	138.00	1	1.100	0.900	24.43	-0.04	0	0
139	1	0.00	0.00	0.00	0.00	1	1.0158451	-6.638370	138.00	1	1.100	0.900	23.90	0.02	0	0
140	1	0.26	0.07	0.00	0.00	1	1.0158414	-6.638798	138.00	1	1.100	0.900	23.90	0.02	0	0
141	1	0.00	0.00	0.00	50.00	1	1.0007397	0.904733	138.00	1	1.100	0.900	39.46	-3.31	0	0
142	1	161.34	43.02	0.00	0.00	1	0.9981432	0.605476	138.00	1	1.100	0.900	39.46	-3.31	0	0
143	1	0.00	0.00	0.00	0.00	1	1.0188568	9.880967	138.00	1	1.100	0.900	8.20	-0.08	0	0
144	2	0.00	0.00	0.00	0.00	1	1.0400000	22.413557	13.80	1	1.100	0.900	8.36	0.00	0	0
145	2	0.00	0.00	0.00	0.00	1	1.0400000	12.557682	13.80	1	1.100	0.900	8.26	0.00	0	0
146	1	0.00	0.00	0.00	0.00	1	1.0288075	-4.406195	345.00	2	1.100	0.900	24.45	-0.02	0	0
147	1	0.00	0.00	0.00	0.00	1	1.0171769	-5.091067	138.00	2	1.100	0.900	24.83	-0.13	0	0
148	1	57.42	15.31	0.00	0.00	1	1.0162469	-5.211278	138.00	2	1.100	0.900	24.83	-0.13	0	0
149	1	0.00	0.00	0.00	0.00	1	1.0220765	-10.214261	138.00	2	1.100	0.900	24.33	-0.00	0	0
150	1	1.50	0.40	0.00	0.00	1	1.0220520	-10.217156	138.00	2	1.100	0.900	24.33	-0.00	0	0
151	1	0.00	0.00	0.00	0.00	1	1.0281989	-4.565813	345.00	1	1.100	0.900	23.92	0.01	0	0
152	1	0.00	0.00	0.00	70.00	1	1.0273743	-6.964574	138.00	1	1.100	0.900	23.92	0.01	0	0
153	1	93.15	24.84	0.00	0.00	1	1.0261367	-7.114999	138.00	1	1.100	0.900	23.92	0.01	0	0
154	1	0.00	0.00	0.00	0.00	1	1.0102394	-7.509774	138.00	1	1.100	0.900	23.89	0.02	0	0
155	1	66.84	17.82	0.00	0.00	1	1.0093542	-7.617307	138.00	1	1.100	0.900	23.89	0.02	0	0
156	1	0.00	0.00	0.00	0.00	1	0.9894585	-11.146434	138.00	1	1.100	0.900	23.93	0.01	0	0
157	1	105.45	28.12	0.00	0.00	1	0.9877951	-11.357826	138.00	1	1.100	0.900	23.93	0.01	0	0
158	1	0.00	0.00	0.00	0.00	1	1.0108595	-10.054788	138.00	2	1.100	0.900	24.43	-0.01	0	0
159	1	22.85	6.09	0.00	0.00	1	1.0104897	-10.102379	138.00	2	1.100	0.900	24.43	-0.01	0	0
160	1	0.00	0.00	0.00	0.00	1	1.0198550	-11.525286	138.00	2	1.100	0.900	24.34	-0.00	0	0
161	1	25.95	6.92	0.00	0.00	1	1.0194710	-11.574194	138.00	2	1.100	0.900	24.34	-0.00	0	0
162	1	0.00	0.00	0.00	0.00	1	1.0290960	-4.368150	345.00	2	1.100	0.900	24.43	-0.02	0	0
163	1	0.00	0.00	0.00	0.00	1	1.0252144	-5.148050	138.00	2	1.100	0.900	24.43	-0.01	0	0
164	1	98.15	26.17	0.00	0.00	1	1.0235650	-5.352447	138.00	2	1.100	0.900	24.43	-0.01	0	0
165	1	0.00	0.00	0.00	0.00	1	1.0303945	0.075112	345.00	1	1.100	0.900	24.15	-0.00	0	0
166	1	0.00	0.00	0.00	0.00	1	1.0245915	-1.492964	138.00	1	1.100	0.900	24.15	-0.00	0	0
167	2	0.00	0.00	0.00	0.00	1	1.0400000	2.295907	13.80	1	1.100	0.900	24.15	0.00	0	0
168	2	0.00	0.00	0.00	0.00	1	1.0400000	3.744285	13.80	1	1.100	0.900	24.15	0.00	0	0
169	2	0.00	0.00	0.00	0.00	1	1.0400000	5.365912	13.80	1	1.100	0.900	24.15	0.00	0	0
170	1	0.00	0.00	0.00	0.00	1	1.0117002	-4.207722	138.00	1	1.100	0.900	24.14	-0.00	0	0
171	1	12.38	3.30	0.00	0.00	1	1.0115142	-4.232925	138.00	1	1.100	0.900	24.14	-0.00	0	0
172	1	0.00	0.00	0.00	0.00	1	1.0050215	-9.319500	138.00	1	1.100	0.900	24.91	-0.19	0	0
173	1	3.14	0.84	0.00	0.00	1	1.0049743	-9.324753	138.00	1	1.100	0.900	24.91	-0.19	0	0
174	1	7.30	1.95	0.00	0.00	1	1.0049199	-9.331447	138.00	1	1.100	0.900	24.91	-0.19	0	0
175	1	0.00	0.00	0.00	0.00	1	1.0339762	-0.091223	345.00	1	1.100	0.900	23.71	0.07	0	0
176	1	0.00	0.00	0.00	0.00	1	1.0231628	0.719265	138.00	1	1.100	0.900	22.18	0.17	0	0
177	1	8.78	2.34	0.00	0.00	1	1.0230314	0.702440	138.00	1	1.100	0.900	22.18	0.17	0	0
178	1	6.81	1.82	0.00	0.00	1	1.0230611	0.708178	138.00	1	1.100	0.900	22.18	0.17	0	0
179	1	0.00	0.00	0.00	0.00	1	1.0042596	-11.279192	138.00	2	1.100	0.900	24.43	-0.01	0	0
180	1	14.14	3.77	0.00	0.00	1	1.0040378	-11.304231	138.00	2	1.100	0.900	24.43	-0.01	0	0
181	1	0.00	0.00	0.00	60.00	1	1.0112415	-14.491345	138.00	1	1.100	0.900	24.20	0.00	0	0
182	1	82.61	22.03	0.00	0.00	1	1.0099107	-14.655747	138.00	1	1.100	0.900	24.20	0.00	0	0
183	1	0.00	0.00	0.00	0.00	1	1.0249616	-3.219058	138.00	1	1.100	0.900	19.19	0.40	0	0
184	1	30.18	8.05	0.00	0.00	1	1.0245654	-3.266209	138.00	1	1.100	0.900	19.19	0.40	0	0
185	1	0.00	0.00	0.00	0.00	1	1.0095536	-5.782083	138.00	1	1.100	0.900	24.14	0.00	0	0
186	1	45.35	12.09	0.00	0.00	1	1.0089328	-5.856463	138.00	1	1.100	0.900	24.14	0.00	0	0
187	1	0.00	0.00	0.00	0.00	1	1.0171144	-8.036407	138.00	2	1.100	0.900	24.43	-0.01	0	0
188	1	11.05	2.95	0.00	0.00	1	1.0169504	-8.054561	138.00	2	1.100	0.900	24.43	-0.01	0	0
189	1	0.00	0.00	0.00	0.00	1	1.0278332	-13.669316	138.00	2	1.100	0.900	24.36	-0.01	0	0
190	1	14.07	3.75	0.00	0.00	1	1.0276288	-13.690888	138.00	2	1.100	0.900	24.36	-0.01	0	0
191	1	0.00	0.00	0.00	0.00	1	1.0196378	-12.257347	138.00	2	1.100	0.900	24.35	-0.00	0	0
192	1	16.44	4.38	0.00	0.00	1	1.0193655	-12.289803	138.00	2	1.100	0.900	24.35	-0.00	0	0
193	1	0.00	0.00	0.00	0.00	1	1.0153213	-10.756351	138.00	2	1.100	0.900	24.39	-0.01	0	0
194	1	28.69	7.65	0.00	0.00	1	1.0148374	-10.814059	138.00	2	1.100	0.900	24.39	-0.01	0	0
195	1	0.00	0.00	0.00	0.00	1	1.0290973	-4.395098	345.00	2	1.100	0.900	24.44	-0.01	0	0
196	1	0.00	0.00	0.00	0.00	1	1.0197133	-6.645405	138.00	2	1.100	0.900	24.43	-0.02	0	0
197	2	0.00	0.00	0.00	0.00	1	1.0400000	0.472472	13.80	2	1.100	0.900	24.44	0.00	0	0
198	2	0.00	0.00	0.00	0.00	1	1.0400000	-1.980408	13.80	2	1.100	0.900	24.44	0.00	0	0
199	1	86.39	23.04	0.00	0.00	1	1.0183724	-6.794483	138.00	2	1.100	0.900	24.43	-0.01	0	0
200	1	0.00	0.00	0.00	0.00	1	1.0207106	-5.906055	138.00	2	1.100	0.900	24.43	-0.01	0	0
...
];

%% generator data 
mpc.gen = [
9	771.80	105.66	359.66	-94.16	1.0400	926.16	1	771.80	231.54	0.00	0.00	0.00	0.00	0.00	0.00	0	0	0	0	0.0000	0	0	0	0
16	444.45	84.63	163.56	-36.44	1.0400	533.34	1	444.45	133.33	0.00	0.00	0.00	0.00	0.00	0.00	0	0	0	0	0.0000	0	0	0	0
17	888.30	150.05	327.12	-72.89	1.0400	1066.68	1	888.90	266.67	0.00	0.00	0.00	0.00	0.00	0.00	0	0	0	0	0.0000	0	0	0	0
18	157.60	21.67	58.00	-12.92	1.0400	189.12	1	157.60	47.28	0.00	0.00	0.00	0.00	0.00	0.00	0	0	0	0	0.0000	0	0	0	0
49	1.30	0.61	0.61	-0.16	1.0400	1.56	1	1.30	0.39	0.00	0.00	0.00	0.00	0.00	0.00	0	0	0	0	0.0000	0	0	0	0
50	2.60	1.21	1.21	-0.32	1.0400	3.12	1	2.60	0.78	0.00	0.00	0.00	0.00	0.00	0.00	0	0	0	0	0.0000	0	0	0	0
63	0.00	0.00	1.63	-0.36	1.0400	3.84	0	3.20	0.96	0.00	0.00	0.00	0.00	0.00	0.00	0	0	0	0	0.0000	0	0	0	0
71	4.00	1.54	1.54	-0.20	1.0400	4.80	1	4.00	1.20	0.00	0.00	0.00	0.00	0.00	0.00	0	0	0	0	0.0000	0	0	0	0
72	2.00	0.77	0.77	-0.10	1.0400	2.40	1	2.00	0.60	0.00	0.00	0.00	0.00	0.00	0.00	0	0	0	0	0.0000	0	0	0	0
73	1.40	0.54	0.54	-0.07	1.0400	1.68	1	1.40	0.42	0.00	0.00	0.00	0.00	0.00	0.00	0	0	0	0	0.0000	0	0	0	0
82	361.90	41.10	138.97	-17.73	1.0400	434.28	1	361.90	108.57	0.00	0.00	0.00	0.00	0.00	0.00	0	0	0	0	0.0000	0	0	0	0
125	0.00	0.00	62.21	-7.94	1.0400	194.40	0	162.00	48.60	0.00	0.00	0.00	0.00	0.00	0.00	0	0	0	0	0.0000	0	0	0	0
126	0.00	0.00	62.21	-7.94	1.0400	194.40	0	162.00	48.60	0.00	0.00	0.00	0.00	0.00	0.00	0	0	0	0	0.0000	0	0	0	0
127	162.00	26.08	62.21	-7.94	1.0400	194.40	1	162.00	48.60	0.00	0.00	0.00	0.00	0.00	0.00	0	0	0	0	0.0000	0	0	0	0
128	162.00	62.21	62.21	-7.94	1.0400	194.40	1	162.00	48.60	0.00	0.00	0.00	0.00	0.00	0.00	0	0	0	0	0.0000	0	0	0	0
144	602.55	111.38	221.74	-49.41	1.0400	723.06	1	602.55	180.76	0.00	0.00	0.00	0.00	0.00	0.00	0	0	0	0	0.0000	0	0	0	0
145	298.15	126.83	221.74	-49.41	1.0400	723.06	1	602.55	180.76	0.00	0.00	0.00	0.00	0.00	0.00	0	0	0	0	0.0000	0	0	0	0
167	193.50	45.89	74.30	-9.48	1.0400	232.20	1	193.50	58.05	0.00	0.00	0.00	0.00	0.00	0.00	0	0	0	0	0.0000	0	0	0	0
168	193.50	32.76	74.30	-9.48	1.0400	232.20	1	193.50	58.05	0.00	0.00	0.00	0.00	0.00	0.00	0	0	0	0	0.0000	0	0	0	0
169	387.00	51.61	148.61	-18.96	1.0400	464.40	1	387.00	116.10	0.00	0.00	0.00	0.00	0.00	0.00	0	0	0	0	0.0000	0	0	0	0
197	293.60	43.32	136.82	-35.82	1.0400	352.32	1	293.60	88.08	0.00	0.00	0.00	0.00	0.00	0.00	0	0	0	0	0.0000	0	0	0	0
198	207.30	52.58	96.60	-25.29	1.0400	248.76	1	207.30	62.19	0.00	0.00	0.00	0.00	0.00	0.00	0	0	0	0	0.0000	0	0	0	0
222	5.20	2.00	2.00	-0.25	1.0400	6.24	1	5.20	1.56	0.00	0.00	0.00	0.00	0.00	0.00	0	0	0	0	0.0000	0	0	0	0
223	18.00	6.91	6.91	-0.88	1.0400	21.60	1	18.00	5.40	0.00	0.00	0.00	0.00	0.00	0.00	0	0	0	0	0.0000	0	0	0	0
224	511.20	39.98	196.30	-25.05	1.0400	613.44	1	511.20	153.36	0.00	0.00	0.00	0.00	0.00	0.00	0	0	0	0	0.0000	0	0	0	0
225	514.80	69.42	197.68	-25.23	1.0400	617.76	1	514.80	154.44	0.00	0.00	0.00	0.00	0.00	0.00	0	0	0	0	0.0000	0	0	0	0
231	2.90	1.35	1.35	-0.35	1.0400	3.48	1	2.90	0.87	0.00	0.00	0.00	0.00	0.00	0.00	0	0	0	0	0.0000	0	0	0	0
248	0.00	0.00	67.80	-14.79	1.0400	159.84	0	133.20	39.96	0.00	0.00	0.00	0.00	0.00	0.00	0	0	0	0	0.0000	0	0	0	0
249	0.00	0.00	67.80	-14.79	1.0400	159.84	0	133.20	39.96	0.00	0.00	0.00	0.00	0.00	0.00	0	0	0	0	0.0000	0	0	0	0
250	0.00	0.00	271.20	-59.14	1.0400	639.36	0	532.80	159.84	0.00	0.00	0.00	0.00	0.00	0.00	0	0	0	0	0.0000	0	0	0	0
254	0.00	0.00	1.91	-0.50	1.0400	4.92	0	4.10	1.23	0.00	0.00	0.00	0.00	0.00	0.00	0	0	0	0	0.0000	0	0	0	0
255	0.00	0.00	1.54	-0.40	1.0400	3.96	0	3.30	0.99	0.00	0.00	0.00	0.00	0.00	0.00	0	0	0	0	0.0000	0	0	0	0
256	0.00	0.00	1.35	-0.35	1.0400	3.48	0	2.90	0.87	0.00	0.00	0.00	0.00	0.00	0.00	0	0	0	0	0.0000	0	0	0	0
257	0.00	0.00	2.52	-0.66	1.0400	6.48	0	5.40	1.62	0.00	0.00	0.00	0.00	0.00	0.00	0	0	0	0	0.0000	0	0	0	0
258	1.10	0.51	0.51	-0.13	1.0400	1.32	1	1.10	0.33	0.00	0.00	0.00	0.00	0.00	0.00	0	0	0	0	0.0000	0	0	0	0
264	0.00	0.00	19.95	-4.35	1.0400	47.04	0	39.20	11.76	0.00	0.00	0.00	0.00	0.00	0.00	0	0	0	0	0.0000	0	0	0	0
265	0.00	0.00	5.40	-1.18	1.0400	12.72	0	10.60	3.18	0.00	0.00	0.00	0.00	0.00	0.00	0	0	0	0	0.0000	0	0	0	0
275	0.00	0.00	51.51	-11.23	1.0400	121.44	0	101.20	30.36	0.00	0.00	0.00	0.00	0.00	0.00	0	0	0	0	0.0000	0	0	0	0
301	2.90	1.35	1.35	-0.35	1.0400	3.48	1	2.90	0.87	0.00	0.00	0.00	0.00	0.00	0.00	0	0	0	0	0.0000	0	0	0	0
302	2.90	1.35	1.35	-0.35	1.0400	3.48	1	2.90	0.87	0.00	0.00	0.00	0.00	0.00	0.00	0	0	0	0	0.0000	0	0	0	0
305	1.00	0.38	0.38	-0.05	1.0400	1.20	1	1.00	0.30	0.00	0.00	0.00	0.00	0.00	0.00	0	0	0	0	0.0000	0	0	0	0
306	2.40	0.92	0.92	-0.12	1.0400	2.88	1	2.40	0.72	0.00	0.00	0.00	0.00	0.00	0.00	0	0	0	0	0.0000	0	0	0	0
319	42.30	16.24	16.24	-2.07	1.0400	50.76	1	42.30	12.69	0.00	0.00	0.00	0.00	0.00	0.00	0	0	0	0	0.0000	0	0	0	0
350	15.00	5.76	5.76	-0.74	1.0400	18.00	1	15.00	4.50	0.00	0.00	0.00	0.00	0.00	0.00	0	0	0	0	0.0000	0	0	0	0
351	6.20	2.38	2.38	-0.30	1.0400	7.44	1	6.20	1.86	0.00	0.00	0.00	0.00	0.00	0.00	0	0	0	0	0.0000	0	0	0	0
352	14.40	5.53	5.53	-0.71	1.0400	17.28	1	14.40	4.32	0.00	0.00	0.00	0.00	0.00	0.00	0	0	0	0	0.0000	0	0	0	0
353	74.00	28.42	28.42	-3.63	1.0400	88.80	1	74.00	22.20	0.00	0.00	0.00	0.00	0.00	0.00	0	0	0	0	0.0000	0	0	0	0
361	0.00	0.00	0.81	-0.18	1.0400	1.92	0	1.60	0.48	0.00	0.00	0.00	0.00	0.00	0.00	0	0	0	0	0.0000	0	0	0	0
362	0.00	0.00	5.60	-1.22	1.0400	13.20	0	11.00	3.30	0.00	0.00	0.00	0.00	0.00	0.00	0	0	0	0	0.0000	0	0	0	0
363	0.00	0.00	1.63	-0.36	1.0400	3.84	0	3.20	0.96	0.00	0.00	0.00	0.00	0.00	0.00	0	0	0	0	0.0000	0	0	0	0
388	0.00	0.00	5.09	-1.11	1.0400	12.00	0	10.00	3.00	0.00	0.00	0.00	0.00	0.00	0.00	0	0	0	0	0.0000	0	0	0	0
389	0.00	0.00	88.23	-19.24	1.0400	208.00	0	173.33	52.00	0.00	0.00	0.00	0.00	0.00	0.00	0	0	0	0	0.0000	0	0	0	0
390	0.00	0.00	88.23	-19.24	1.0400	208.00	0	173.33	52.00	0.00	0.00	0.00	0.00	0.00	0.00	0	0	0	0	0.0000	0	0	0	0
391	0.00	0.00	88.23	-19.24	1.0400	208.00	0	173.33	52.00	0.00	0.00	0.00	0.00	0.00	0.00	0	0	0	0	0.0000	0	0	0	0
392	0.00	0.00	59.25	-12.92	1.0400	139.68	0	116.40	34.92	0.00	0.00	0.00	0.00	0.00	0.00	0	0	0	0	0.0000	0	0	0	0
393	0.00	0.00	59.25	-12.92	1.0400	139.68	0	116.40	34.92	0.00	0.00	0.00	0.00	0.00	0.00	0	0	0	0	0.0000	0	0	0	0
394	0.00	0.00	59.25	-12.92	1.0400	139.68	0	116.40	34.92	0.00	0.00	0.00	0.00	0.00	0.00	0	0	0	0	0.0000	0	0	0	0
395	0.00	0.00	59.25	-12.92	1.0400	139.68	0	116.40	34.92	0.00	0.00	0.00	0.00	0.00	0.00	0	0	0	0	0.0000	0	0	0	0
396	0.00	0.00	59.25	-12.92	1.0400	139.68	0	116.40	34.92	0.00	0.00	0.00	0.00	0.00	0.00	0	0	0	0	0.0000	0	0	0	0
409	0.00	0.00	50.90	-11.10	1.0400	120.00	0	100.00	30.00	0.00	0.00	0.00	0.00	0.00	0.00	0	0	0	0	0.0000	0	0	0	0
410	79.43	14.93	69.71	-15.20	1.0400	164.34	1	136.95	41.08	0.00	0.00	0.00	0.00	0.00	0.00	0	0	0	0	0.0000	0	0	0	0
411	79.43	25.53	69.71	-15.20	1.0400	164.34	1	136.95	41.08	0.00	0.00	0.00	0.00	0.00	0.00	0	0	0	0	0.0000	0	0	0	0
412	79.43	22.34	69.71	-15.20	1.0400	164.34	1	136.95	41.08	0.00	0.00	0.00	0.00	0.00	0.00	0	0	0	0	0.0000	0	0	0	0
413	61.60	14.63	69.71	-15.20	1.0400	164.34	1	136.95	41.08	0.00	0.00	0.00	0.00	0.00	0.00	0	0	0	0	0.0000	0	0	0	0
414	0.00	0.00	56.55	-12.33	1.0400	133.32	0	111.10	33.33	0.00	0.00	0.00	0.00	0.00	0.00	0	0	0	0	0.0000	0	0	0	0
430	1.00	0.38	0.38	-0.05	1.0400	1.20	1	1.00	0.30	0.00	0.00	0.00	0.00	0.00	0.00	0	0	0	0	0.0000	0	0	0	0
431	3.30	1.27	1.27	-0.16	1.0400	3.96	1	3.30	0.99	0.00	0.00	0.00	0.00	0.00	0.00	0	0	0	0	0.0000	0	0	0	0
432	1.20	0.46	0.46	-0.06	1.0400	1.44	1	1.20	0.36	0.00	0.00	0.00	0.00	0.00	0.00	0	0	0	0	0.0000	0	0	0	0
433	6.70	2.57	2.57	-0.33	1.0400	8.04	1	6.70	2.01	0.00	0.00	0.00	0.00	0.00	0.00	0	0	0	0	0.0000	0	0	0	0
434	4.30	1.65	1.65	-0.21	1.0400	5.16	1	4.30	1.29	0.00	0.00	0.00	0.00	0.00	0.00	0	0	0	0	0.0000	0	0	0	0
435	0.00	0.00	75.65	-9.65	1.0400	236.40	0	197.00	59.10	0.00	0.00	0.00	0.00	0.00	0.00	0	0	0	0	0.0000	0	0	0	0
436	0.00	0.00	75.65	-9.65	1.0400	236.40	0	197.00	59.10	0.00	0.00	0.00	0.00	0.00	0.00	0	0	0	0	0.0000	0	0	0	0
437	197.00	52.67	75.65	-9.65	1.0400	236.40	1	197.00	59.10	0.00	0.00	0.00	0.00	0.00	0.00	0	0	0	0	0.0000	0	0	0	0
438	197.00	40.10	75.65	-9.65	1.0400	236.40	1	197.00	59.10	0.00	0.00	0.00	0.00	0.00	0.00	0	0	0	0	0.0000	0	0	0	0
439	197.00	65.56	75.65	-9.65	1.0400	236.40	1	197.00	59.10	0.00	0.00	0.00	0.00	0.00	0.00	0	0	0	0	0.0000	0	0	0	0
442	0.00	0.00	54.97	-11.99	1.0400	129.60	0	108.00	32.40	0.00	0.00	0.00	0.00	0.00	0.00	0	0	0	0	0.0000	0	0	0	0
443	0.00	0.00	89.07	-19.43	1.0400	210.00	0	175.00	52.50	0.00	0.00	0.00	0.00	0.00	0.00	0	0	0	0	0.0000	0	0	0	0
444	0.00	0.00	1.68	-0.37	1.0400	3.96	0	3.30	0.99	0.00	0.00	0.00	0.00	0.00	0.00	0	0	0	0	0.0000	0	0	0	0
455	66.85	56.46	113.42	-24.73	1.0400	267.40	1	222.83	66.85	0.00	0.00	0.00	0.00	0.00	0.00	0	0	0	0	0.0000	0	0	0	0
456	133.70	55.60	226.84	-49.47	1.0400	534.80	1	445.67	133.70	0.00	0.00	0.00	0.00	0.00	0.00	0	0	0	0	0.0000	0	0	0	0
458	109.60	0.00	0.00	0.00	1.0400	131.52	1	109.60	32.88	0.00	0.00	0.00	0.00	0.00	0.00	0	0	0	0	0.0000	0	0	0	0
463	0.00	0.00	3.36	-0.88	1.0400	8.64	0	7.20	2.16	0.00	0.00	0.00	0.00	0.00	0.00	0	0	0	0	0.0000	0	0	0	0
480	56.00	9.62	21.50	-2.74	1.0400	67.20	1	56.00	16.80	0.00	0.00	0.00	0.00	0.00	0.00	0	0	0	0	0.0000	0	0	0	0
481	45.00	12.10	17.28	-2.21	1.0400	54.00	1	45.00	13.50	0.00	0.00	0.00	0.00	0.00	0.00	0	0	0	0	0.0000	0	0	0	0
482	45.00	17.28	17.28	-2.21	1.0400	54.00	1	45.00	13.50	0.00	0.00	0.00	0.00	0.00	0.00	0	0	0	0	0.0000	0	0	0	0
483	24.00	6.25	9.22	-1.18	1.0400	28.80	1	24.00	7.20	0.00	0.00	0.00	0.00	0.00	0.00	0	0	0	0	0.0000	0	0	0	0
484	28.00	10.75	10.75	-1.37	1.0400	33.60	1	28.00	8.40	0.00	0.00	0.00	0.00	0.00	0.00	0	0	0	0	0.0000	0	0	0	0
494	0.00	0.00	2.70	-0.71	1.0400	6.96	0	5.80	1.74	0.00	0.00	0.00	0.00	0.00	0.00	0	0	0	0	0.0000	0	0	0	0
497	60.00	23.04	23.04	-2.94	1.0400	72.00	1	60.00	18.00	0.00	0.00	0.00	0.00	0.00	0.00	0	0	0	0	0.0000	0	0	0	0
498	18.00	6.91	6.91	-0.88	1.0400	21.60	1	18.00	5.40	0.00	0.00	0.00	0.00	0.00	0.00	0	0	0	0	0.0000	0	0	0	0
];

%% generator cost data
mpc.gencost = [
2	0	0	4	0.0000	0.002	19.000	1424.48
2	0	0	4	0.0000	0.000	5.867	1266.47
2	0	0	4	0.0000	0.000	8.412	1319.13
2	0	0	4	0.0000	0.000	9.275	1076.21
2	0	0	4	0.0000	0.002	19.000	236.03
2	0	0	4	0.0000	0.002	19.000	236.07
2	0	0	4	0.0000	0.002	23.152	604.80
2	0	0	4	0.0000	0.000	0.000	0.00
2	0	0	4	0.0000	0.000	0.000	0.00
2	0	0	4	0.0000	0.000	0.000	0.00
2	0	0	4	0.0000	0.000	0.000	0.00
2	0	0	4	0.0000	0.000	0.000	0.00
2	0	0	4	0.0000	0.000	0.000	0.00
2	0	0	4	0.0000	0.000	0.000	0.00
2	0	0	4	0.0000	0.000	0.000	0.00
2	0	0	4	0.0000	0.000	6.870	1363.88
2	0	0	4	0.0000	0.000	8.143	1060.19
2	0	0	4	0.0000	0.000	0.000	0.00
2	0	0	4	0.0000	0.000	0.000	0.00
2	0	0	4	0.0000	0.000	0.000	0.00
2	0	0	4	0.0000	0.002	19.000	1081.02
2	0	0	4	0.0000	0.002	19.000	879.08
2	0	0	4	0.0000	0.000	0.000	0.00
2	0	0	4	0.0000	0.000	0.000	0.00
2	0	0	4	0.0000	0.000	0.000	0.00
2	0	0	4	0.0000	0.000	0.000	0.00
2	0	0	4	0.0000	0.002	19.000	236.08
2	0	0	4	0.0000	0.002	24.033	799.80
2	0	0	4	0.0000	0.002	24.033	799.80
2	0	0	4	0.0000	0.002	26.742	2763.98
2	0	0	4	0.0000	0.002	19.000	236.11
2	0	0	4	0.0000	0.002	19.000	236.09
2	0	0	4	0.0000	0.002	19.000	236.08
2	0	0	4	0.0000	0.002	19.000	236.14
2	0	0	4	0.0000	0.002	19.000	236.03
2	0	0	4	0.0000	0.002	23.396	658.80
2	0	0	4	0.0000	0.002	23.202	615.90
2	0	0	4	0.0000	0.002	23.816	751.80
2	0	0	4	0.0000	0.002	19.000	236.08
2	0	0	4	0.0000	0.002	19.000	236.08
2	0	0	4	0.0000	0.000	0.000	0.00
2	0	0	4	0.0000	0.000	0.000	0.00
2	0	0	4	0.0000	0.000	0.000	0.00
2	0	0	4	0.0000	0.000	0.000	0.00
2	0	0	4	0.0000	0.000	0.000	0.00
2	0	0	4	0.0000	0.000	0.000	0.00
2	0	0	4	0.0000	0.000	0.000	0.00
2	0	0	4	0.0000	0.002	23.141	602.40
2	0	0	4	0.0000	0.002	23.205	616.50
2	0	0	4	0.0000	0.002	23.152	604.80
2	0	0	4	0.0000	0.002	23.198	615.00
2	0	0	4	0.0000	0.002	24.305	859.99
2	0	0	4	0.0000	0.002	24.305	859.99
2	0	0	4	0.0000	0.002	24.305	859.99
2	0	0	4	0.0000	0.002	23.919	774.60
2	0	0	4	0.0000	0.002	23.919	774.60
2	0	0	4	0.0000	0.002	23.919	774.60
2	0	0	4	0.0000	0.002	23.919	774.60
2	0	0	4	0.0000	0.002	23.919	774.60
2	0	0	4	0.0000	0.002	23.808	750.00
2	0	0	4	0.0000	0.002	24.059	805.42
2	0	0	4	0.0000	0.002	24.059	805.42
2	0	0	4	0.0000	0.002	24.059	805.42
2	0	0	4	0.0000	0.002	24.059	805.42
2	0	0	4	0.0000	0.002	23.883	766.65
2	0	0	4	0.0000	0.000	0.000	0.00
2	0	0	4	0.0000	0.000	0.000	0.00
2	0	0	4	0.0000	0.000	0.000	0.00
2	0	0	4	0.0000	0.000	0.000	0.00
2	0	0	4	0.0000	0.000	0.000	0.00
2	0	0	4	0.0000	0.000	0.000	0.00
2	0	0	4	0.0000	0.000	0.000	0.00
2	0	0	4	0.0000	0.000	0.000	0.00
2	0	0	4	0.0000	0.000	0.000	0.00
2	0	0	4	0.0000	0.000	0.000	0.00
2	0	0	4	0.0000	0.002	23.862	762.00
2	0	0	4	0.0000	0.002	24.316	862.50
2	0	0	4	0.0000	0.002	23.152	604.95
2	0	0	4	0.0000	0.002	24.641	934.24
2	0	0	4	0.0000	0.002	26.152	1344.19
2	0	0	4	0.0000	0.000	0.000	0.00
2	0	0	4	0.0000	0.002	19.000	236.19
2	0	0	4	0.0000	0.000	0.000	0.00
2	0	0	4	0.0000	0.000	0.000	0.00
2	0	0	4	0.0000	0.000	0.000	0.00
2	0	0	4	0.0000	0.000	0.000	0.00
2	0	0	4	0.0000	0.000	0.000	0.00
2	0	0	4	0.0000	0.002	19.000	236.15
2	0	0	4	0.0000	0.000	0.000	0.00
2	0	0	4	0.0000	0.000	0.000	0.00
];

%% branch data
mpc.branch = [
2	1	0.000531	0.003140	0.00000	76.50	0.00	0.00	0.00000	0.000	1	0.00	0.00	-42.80	-11.41	42.81	11.47	0	0	0	0
44	1	0.005479	0.050257	0.01781	320.29	0.00	0.00	0.00000	0.000	1	0.00	0.00	36.33	7.95	-36.25	-9.10	0	0	0	0
421	1	0.005369	0.051555	0.01664	320.29	0.00	0.00	0.00000	0.000	1	0.00	0.00	6.56	0.69	-6.56	-2.37	0	0	0	0
4	3	0.000692	0.003518	0.00000	225.06	0.00	0.00	0.00000	0.000	1	0.00	0.00	-132.69	-35.38	132.82	36.04	0	0	0	0
62	3	0.002718	0.026098	0.00842	320.29	0.00	0.00	0.00000	0.000	1	0.00	0.00	12.19	12.15	-12.18	-12.93	0	0	0	0
3	479	0.007258	0.069699	0.02250	320.29	0.00	0.00	0.00000	0.000	1	0.00	0.00	-120.64	-23.12	121.72	31.13	0	0	0	0
6	5	0.000556	0.003563	0.00000	4.49	0.00	0.00	0.00000	0.000	1	0.00	0.00	-3.21	-0.86	3.21	0.86	0	0	0	0
316	5	0.002445	0.023480	0.00758	320.29	0.00	0.00	0.00000	0.000	1	0.00	0.00	-115.32	33.43	115.66	-30.95	0	0	0	0
401	5	0.004886	0.046920	0.01515	320.29	0.00	0.00	0.00000	0.000	1	0.00	0.00	119.59	-24.77	-118.88	30.09	0	0	0	0
8	7	0.000355	0.012900	0.00000	567.00	0.00	0.00	1.00000	0.000	1	0.00	0.00	-256.99	-43.87	257.22	52.19	0	0	0	0
9	7	0.000120	0.013620	0.00000	680.00	0.00	0.00	1.00000	0.000	1	0.00	0.00	385.90	52.83	-385.73	-33.72	0	0	0	0
9	7	0.000120	0.013620	0.00000	680.00	0.00	0.00	1.00000	0.000	1	0.00	0.00	385.90	52.83	-385.73	-33.72	0	0	0	0
7	232	0.001119	0.014808	0.31205	1493.89	0.00	0.00	0.00000	0.000	1	0.00	0.00	229.60	2.21	-229.04	-28.06	0	0	0	0
7	262	0.000947	0.013749	0.23994	1493.89	0.00	0.00	0.00000	0.000	1	0.00	0.00	284.65	13.05	-283.92	-28.06	0	0	0	0
8	287	0.003727	0.035786	0.01155	320.29	0.00	0.00	0.00000	0.000	1	0.00	0.00	198.26	21.48	-196.85	-9.18	0	0	0	0
8	457	0.001974	0.018955	0.00612	320.29	0.00	0.00	0.00000	0.000	1	0.00	0.00	58.73	22.40	-58.66	-22.32	0	0	0	0
11	10	0.000655	0.003201	0.00000	3.96	0.00	0.00	0.00000	0.000	1	0.00	0.00	-2.47	-0.66	2.47	0.66	0	0	0	0
342	10	0.002825	0.027123	0.00876	320.29	0.00	0.00	0.00000	0.000	1	0.00	0.00	-52.47	-14.38	52.56	14.26	0	0	0	0
10	349	0.001402	0.013460	0.00434	320.29	0.00	0.00	0.00000	0.000	1	0.00	0.00	-55.03	-14.92	55.07	14.89	0	0	0	0
13	12	0.000623	0.003134	0.00000	65.50	0.00	0.00	0.00000	0.000	1	0.00	0.00	-37.16	-9.91	37.17	9.96	0	0	0	0
12	216	0.003962	0.038048	0.01228	320.29	0.00	0.00	0.00000	0.000	1	0.00	0.00	29.05	-1.26	-29.01	0.38	0	0	0	0
12	304	0.002310	0.021191	0.00751	320.29	0.00	0.00	0.00000	0.000	1	0.00	0.00	89.64	21.53	-89.44	-20.43	0	0	0	0
12	441	0.001565	0.015025	0.00485	320.29	0.00	0.00	0.00000	0.000	1	0.00	0.00	-155.85	-30.23	156.25	33.60	0	0	0	0
15	14	0.000208	0.011220	0.00000	682.00	0.00	0.00	1.00000	0.000	1	0.00	0.00	-429.84	-61.47	430.21	81.74	0	0	0	0
16	14	0.000326	0.012020	0.00000	596.00	0.00	0.00	1.00000	0.000	1	0.00	0.00	444.45	84.63	-443.83	-61.88	0	0	0	0
17	14	0.000279	0.014380	0.00000	674.00	0.00	0.00	1.00000	0.000	1	0.00	0.00	443.98	76.19	-443.46	-49.21	0	0	0	0
17	14	0.000354	0.014380	0.00000	674.00	0.00	0.00	1.00000	0.000	1	0.00	0.00	444.32	73.86	-443.66	-46.89	0	0	0	0
18	14	0.001417	0.051150	0.00000	340.00	0.00	0.00	1.00000	0.000	1	0.00	0.00	157.60	21.67	-157.27	-9.70	0	0	0	0
386	14	0.000317	0.004547	0.08136	1493.89	0.00	0.00	0.00000	0.000	1	0.00	0.00	-528.36	-39.65	529.20	43.15	0	0	0	0
386	14	0.000320	0.004550	0.08136	1493.90	0.00	0.00	0.00000	0.000	1	0.00	0.00	-527.96	-39.30	528.81	42.78	0	0	0	0
15	91	0.004799	0.046085	0.01488	320.29	0.00	0.00	0.00000	0.000	1	0.00	0.00	62.31	14.89	-62.12	-14.60	0	0	0	0
15	230	0.010894	0.104607	0.03377	320.29	0.00	0.00	0.00000	0.000	1	0.00	0.00	116.85	3.38	-115.42	6.85	0	0	0	0
367	15	0.001918	0.018416	0.00594	320.29	0.00	0.00	0.00000	0.000	1	0.00	0.00	-170.88	-20.99	171.43	25.69	0	0	0	0
15	369	0.001854	0.017010	0.00603	320.29	0.00	0.00	0.00000	0.000	1	0.00	0.00	57.91	15.13	-57.85	-15.17	0	0	0	0
15	473	0.009225	0.084621	0.02999	320.29	0.00	0.00	0.00000	0.000	1	0.00	0.00	21.33	2.38	-21.29	-5.11	0	0	0	0
20	19	0.000541	0.003886	0.00000	7.53	0.00	0.00	0.00000	0.000	1	0.00	0.00	-4.54	-1.21	4.54	1.21	0	0	0	0
19	112	0.004722	0.045345	0.01464	320.29	0.00	0.00	0.00000	0.000	1	0.00	0.00	-19.53	10.95	19.55	-12.23	0	0	0	0
193	19	0.002221	0.021323	0.00688	320.29	0.00	0.00	0.00000	0.000	1	0.00	0.00	1.90	-15.05	-1.90	14.38	0	0	0	0
19	272	0.002293	0.022020	0.00711	320.29	0.00	0.00	0.00000	0.000	1	0.00	0.00	16.88	-26.55	-16.86	26.01	0	0	0	0
22	21	0.000587	0.003174	0.00000	254.15	0.00	0.00	0.00000	0.000	1	0.00	0.00	-148.70	-39.65	148.84	40.39	0	0	0	0
21	112	0.005092	0.048896	0.01578	320.29	0.00	0.00	0.00000	0.000	1	0.00	0.00	50.29	-14.81	-50.15	14.50	0	0	0	0
21	196	0.002207	0.020247	0.00718	320.29	0.00	0.00	0.00000	0.000	1	0.00	0.00	-199.12	-25.58	199.99	32.85	0	0	0	0
24	23	0.000330	0.017640	0.00000	626.00	0.00	0.00	1.00000	0.000	1	0.00	0.00	-298.12	-72.76	298.43	88.97	0	0	0	0
151	23	0.000182	0.002607	0.04665	1493.89	0.00	0.00	0.00000	0.000	1	0.00	0.00	-71.68	37.65	71.69	-42.41	0	0	0	0
23	386	0.001642	0.023851	0.41623	1493.89	0.00	0.00	0.00000	0.000	1	0.00	0.00	-247.59	5.04	248.55	-34.92	0	0	0	0
23	464	0.000947	0.012532	0.26411	1493.89	0.00	0.00	0.00000	0.000	1	0.00	0.00	-14.22	-22.58	14.22	-5.29	0	0	0	0
23	471	0.000532	0.007041	0.14837	1493.89	0.00	0.00	0.00000	0.000	1	0.00	0.00	-108.31	-29.02	108.37	14.15	0	0	0	0
25	24	0.000613	0.003629	0.00000	3.56	0.00	0.00	0.00000	0.000	1	0.00	0.00	-2.28	-0.61	2.28	0.61	0	0	0	0
26	24	0.000563	0.003729	0.00000	29.46	0.00	0.00	0.00000	0.000	1	0.00	0.00	-21.66	-5.78	21.67	5.80	0	0	0	0
210	24	0.002218	0.020344	0.00721	320.29	0.00	0.00	0.00000	0.000	1	0.00	0.00	-123.75	-31.05	124.11	33.61	0	0	0	0
24	360	0.002365	0.022714	0.00733	320.29	0.00	0.00	0.00000	0.000	1	0.00	0.00	150.07	32.75	-149.52	-28.26	0	0	0	0
28	27	0.000687	0.003963	0.00000	108.61	0.00	0.00	0.00000	0.000	1	0.00	0.00	-62.93	-16.78	62.96	16.95	0	0	0	0
27	68	0.005607	0.053845	0.01738	320.29	0.00	0.00	0.00000	0.000	1	0.00	0.00	-96.97	18.63	97.50	-15.28	0	0	0	0
27	382	0.003370	0.030912	0.01095	320.29	0.00	0.00	0.00000	0.000	1	0.00	0.00	34.01	15.76	-33.96	-16.45	0	0	0	0
30	29	0.000616	0.003298	0.00000	156.98	0.00	0.00	0.00000	0.000	1	0.00	0.00	-99.97	-26.66	100.04	27.01	0	0	0	0
454	29	0.002470	0.022656	0.00803	320.29	0.00	0.00	0.00000	0.000	1	0.00	0.00	114.35	13.22	-114.04	-11.12	0	0	0	0
29	491	0.005607	0.053837	0.01738	320.29	0.00	0.00	0.00000	0.000	1	0.00	0.00	14.00	-15.88	-13.98	14.32	0	0	0	0
32	31	0.000625	0.003429	0.00000	15.70	0.00	0.00	0.00000	0.000	1	0.00	0.00	-9.77	-2.60	9.77	2.61	0	0	0	0
31	85	0.005303	0.050926	0.01644	320.29	0.00	0.00	0.00000	0.000	1	0.00	0.00	-41.07	16.62	41.17	-17.41	0	0	0	0
104	31	0.005526	0.053062	0.01713	320.29	0.00	0.00	0.00000	0.000	1	0.00	0.00	-16.50	-26.09	16.55	24.75	0	0	0	0
31	189	0.005707	0.054800	0.01769	320.29	0.00	0.00	0.00000	0.000	1	0.00	0.00	5.05	7.26	-5.05	-9.09	0	0	0	0
31	205	0.007797	0.074869	0.02417	320.29	0.00	0.00	0.00000	0.000	1	0.00	0.00	-7.43	14.33	7.46	-16.67	0	0	0	0
31	218	0.008273	0.079446	0.02565	320.29	0.00	0.00	0.00000	0.000	1	0.00	0.00	-32.45	10.14	32.54	-11.98	0	0	0	0
267	31	0.004897	0.047021	0.01518	320.29	0.00	0.00	0.00000	0.000	1	0.00	0.00	-49.43	-30.95	49.58	30.89	0	0	0	0
34	33	0.000624	0.003284	0.00000	43.35	0.00	0.00	0.00000	0.000	1	0.00	0.00	-25.00	-6.67	25.00	6.69	0	0	0	0
83	33	0.005287	0.050764	0.01639	320.29	0.00	0.00	0.00000	0.000	1	0.00	0.00	-14.00	-3.11	14.01	1.56	0	0	0	0
112	33	0.007061	0.067808	0.02189	320.29	0.00	0.00	0.00000	0.000	1	0.00	0.00	39.12	7.07	-39.01	-8.25	0	0	0	0
36	35	0.000583	0.003030	0.00000	62.87	0.00	0.00	0.00000	0.000	1	0.00	0.00	-43.35	-11.56	43.36	11.62	0	0	0	0
191	35	0.004038	0.037042	0.01313	320.29	0.00	0.00	0.00000	0.000	1	0.00	0.00	6.25	4.07	-6.25	-5.41	0	0	0	0
35	399	0.005636	0.054123	0.01747	320.29	0.00	0.00	0.00000	0.000	1	0.00	0.00	-37.11	-6.21	37.19	5.12	0	0	0	0
38	37	0.000546	0.003823	0.00000	0.18	0.00	0.00	0.00000	0.000	1	0.00	0.00	-0.13	-0.03	0.13	0.03	0	0	0	0
76	37	0.001474	0.014156	0.00457	320.29	0.00	0.00	0.00000	0.000	1	0.00	0.00	110.00	-21.80	-109.82	23.05	0	0	0	0
37	176	0.003039	0.029180	0.00942	320.29	0.00	0.00	0.00000	0.000	1	0.00	0.00	109.70	-23.08	-109.33	25.62	0	0	0	0
40	39	0.000700	0.025310	0.00000	428.00	0.00	0.00	1.00000	0.000	1	0.00	0.00	-88.31	-22.73	88.37	24.74	0	0	0	0
39	332	0.000403	0.005786	0.10355	1493.89	0.00	0.00	0.00000	0.000	1	0.00	0.00	-23.29	-0.66	23.29	-10.28	0	0	0	0
39	428	0.000521	0.006898	0.14538	1493.89	0.00	0.00	0.00000	0.000	1	0.00	0.00	-65.08	-24.08	65.10	8.94	0	0	0	0
41	40	0.000631	0.003923	0.00000	97.47	0.00	0.00	0.00000	0.000	1	0.00	0.00	-57.99	-15.46	58.01	15.60	0	0	0	0
40	131	0.002909	0.026681	0.00946	320.29	0.00	0.00	0.00000	0.000	1	0.00	0.00	30.30	7.13	-30.27	-7.87	0	0	0	0
43	42	0.000542	0.003119	0.00000	7.70	0.00	0.00	0.00000	0.000	1	0.00	0.00	-4.46	-1.19	4.46	1.19	0	0	0	0
81	42	0.002361	0.021660	0.00768	320.29	0.00	0.00	0.00000	0.000	1	0.00	0.00	71.49	2.17	-71.38	-1.93	0	0	0	0
42	191	0.006368	0.058420	0.02070	320.29	0.00	0.00	0.00000	0.000	1	0.00	0.00	66.92	0.74	-66.65	-0.40	0	0	0	0
45	44	0.000637	0.003876	0.00000	2.84	0.00	0.00	0.00000	0.000	1	0.00	0.00	-2.03	-0.54	2.03	0.54	0	0	0	0
44	200	0.002105	0.019311	0.00684	320.29	0.00	0.00	0.00000	0.000	1	0.00	0.00	-38.36	-8.49	38.39	8.06	0	0	0	0
47	46	0.000602	0.003454	0.00000	63.00	0.00	0.00	0.00000	0.000	1	0.00	0.00	-43.41	-11.58	43.42	11.65	0	0	0	0
46	156	0.006611	0.063482	0.02049	320.29	0.00	0.00	0.00000	0.000	1	0.00	0.00	41.36	18.42	-41.22	-19.14	0	0	0	0
238	46	0.003134	0.030093	0.00971	320.29	0.00	0.00	0.00000	0.000	1	0.00	0.00	85.03	31.48	-84.78	-30.07	0	0	0	0
49	48	0.013310	0.278530	0.00000	57.00	0.00	0.00	1.00000	0.000	1	0.00	0.00	1.30	0.61	-1.30	-0.60	0	0	0	0
50	48	0.007150	0.163560	0.00000	70.00	0.00	0.00	1.00000	0.000	1	0.00	0.00	2.60	1.21	-2.60	-1.20	0	0	0	0
51	48	0.000658	0.003672	0.00000	0.56	0.00	0.00	0.00000	0.000	1	0.00	0.00	-0.35	-0.09	0.35	0.09	0	0	0	0
52	48	0.000620	0.003342	0.00000	37.95	0.00	0.00	0.00000	0.000	1	0.00	0.00	-23.39	-6.24	23.39	6.26	0	0	0	0
358	48	0.004500	0.041283	0.01463	320.29	0.00	0.00	0.00000	0.000	1	0.00	0.00	-3.26	2.80	3.27	-4.26	0	0	0	0
419	48	0.004637	0.044525	0.01437	320.29	0.00	0.00	0.00000	0.000	1	0.00	0.00	23.14	-0.91	-23.11	-0.29	0	0	0	0
54	53	0.000680	0.003061	0.00000	51.27	0.00	0.00	0.00000	0.000	1	0.00	0.00	-34.81	-9.28	34.82	9.32	0	0	0	0
233	53	0.002362	0.021667	0.00768	320.29	0.00	0.00	0.00000	0.000	1	0.00	0.00	98.23	1.18	-98.01	0.04	0	0	0	0
53	276	0.001502	0.014424	0.00466	320.29	0.00	0.00	0.00000	0.000	1	0.00	0.00	63.19	-9.36	-63.13	9.45	0	0	0	0
56	55	0.000641	0.003310	0.00000	3.15	0.00	0.00	0.00000	0.000	1	0.00	0.00	-2.25	-0.60	2.25	0.60	0	0	0	0
55	66	0.004330	0.041575	0.01342	320.29	0.00	0.00	0.00000	0.000	1	0.00	0.00	-36.69	-1.94	36.75	1.09	0	0	0	0
55	500	0.004481	0.041102	0.01457	320.29	0.00	0.00	0.00000	0.000	1	0.00	0.00	34.44	1.34	-34.39	-2.38	0	0	0	0
58	57	0.000120	0.017620	0.00000	675.00	0.00	0.00	1.00000	0.000	1	0.00	0.00	-282.96	-38.07	283.06	52.38	0	0	0	0
58	57	0.000120	0.017620	0.00000	675.00	0.00	0.00	1.00000	0.000	1	0.00	0.00	-282.96	-38.07	283.06	52.38	0	0	0	0
57	123	0.001682	0.024427	0.42627	1493.89	0.00	0.00	0.00000	0.000	1	0.00	0.00	-437.92	-51.31	441.10	53.06	0	0	0	0
440	57	0.000601	0.008726	0.15227	1493.89	0.00	0.00	0.00000	0.000	1	0.00	0.00	128.31	39.42	-128.20	-53.45	0	0	0	0
59	58	0.000620	0.003848	0.00000	252.93	0.00	0.00	0.00000	0.000	1	0.00	0.00	-140.94	-37.58	141.07	38.40	0	0	0	0
58	253	0.004532	0.043520	0.01405	320.29	0.00	0.00	0.00000	0.000	1	0.00	0.00	95.23	17.25	-94.81	-14.57	0	0	0	0
322	58	0.002019	0.019385	0.00626	320.29	0.00	0.00	0.00000	0.000	1	0.00	0.00	-164.28	-5.61	164.83	10.25	0	0	0	0
322	58	0.002020	0.019390	0.00626	320.30	0.00	0.00	0.00000	0.000	1	0.00	0.00	-164.24	-5.60	164.79	10.25	0	0	0	0
61	60	0.000529	0.003518	0.00000	0.32	0.00	0.00	0.00000	0.000	1	0.00	0.00	-0.20	-0.05	0.20	0.05	0	0	0	0
60	131	0.001985	0.018208	0.00645	320.29	0.00	0.00	0.00000	0.000	1	0.00	0.00	-13.12	-2.89	13.12	2.25	0	0	0	0
466	60	0.002011	0.019314	0.00623	320.29	0.00	0.00	0.00000	0.000	1	0.00	0.00	-12.91	-3.45	12.91	2.83	0	0	0	0
63	62	0.003200	0.163530	0.00000	70.00	0.00	0.00	1.00000	0.000	1	0.00	0.00	0.00	0.00	0.00	0.00	0	0	0	0
64	62	0.000661	0.003274	0.00000	45.58	0.00	0.00	0.00000	0.000	1	0.00	0.00	-34.78	-9.27	34.78	9.32	0	0	0	0
287	62	0.005453	0.052365	0.01690	320.29	0.00	0.00	0.00000	0.000	1	0.00	0.00	-21.37	10.34	21.40	-11.77	0	0	0	0
62	457	0.007267	0.069786	0.02253	320.29	0.00	0.00	0.00000	0.000	1	0.00	0.00	-68.37	-9.69	68.71	10.62	0	0	0	0
66	65	0.000808	0.030880	0.00000	405.00	0.00	0.00	1.00000	0.000	1	0.00	0.00	-100.73	-9.42	100.81	12.45	0	0	0	0
80	65	0.000960	0.013773	0.24648	1493.89	0.00	0.00	0.00000	0.000	1	0.00	0.00	65.40	31.07	-65.35	-56.34	0	0	0	0
65	297	0.000920	0.013192	0.23607	1493.89	0.00	0.00	0.00000	0.000	1	0.00	0.00	-35.46	43.89	35.50	-67.99	0	0	0	0
67	66	0.000661	0.003359	0.00000	6.71	0.00	0.00	0.00000	0.000	1	0.00	0.00	-4.57	-1.22	4.57	1.22	0	0	0	0
66	308	0.007180	0.068950	0.02226	320.29	0.00	0.00	0.00000	0.000	1	0.00	0.00	59.41	7.12	-59.17	-7.04	0	0	0	0
69	68	0.000669	0.003998	0.00000	27.64	0.00	0.00	0.00000	0.000	1	0.00	0.00	-16.96	-4.52	16.96	4.54	0	0	0	0
68	295	0.004469	0.040995	0.01453	320.29	0.00	0.00	0.00000	0.000	1	0.00	0.00	-61.85	5.98	62.02	-5.90	0	0	0	0
68	314	0.001805	0.017334	0.00560	320.29	0.00	0.00	0.00000	0.000	1	0.00	0.00	-52.62	4.77	52.67	-4.86	0	0	0	0
71	70	0.001030	0.044720	0.00000	133.00	0.00	0.00	1.00000	0.000	1	0.00	0.00	4.00	1.54	-4.00	-1.53	0	0	0	0
72	70	0.002920	0.144810	0.00000	60.00	0.00	0.00	1.00000	0.000	1	0.00	0.00	2.00	0.77	-2.00	-0.76	0	0	0	0
73	70	0.012696	0.273030	0.00000	49.00	0.00	0.00	1.00000	0.000	1	0.00	0.00	1.40	0.54	-1.40	-0.53	0	0	0	0
216	70	0.002596	0.023810	0.00844	320.29	0.00	0.00	0.00000	0.000	1	0.00	0.00	-26.11	-15.17	26.13	14.56	0	0	0	0
70	490	0.002127	0.019512	0.00691	320.29	0.00	0.00	0.00000	0.000	1	0.00	0.00	-18.73	-11.74	18.74	11.15	0	0	0	0
75	74	0.000584	0.003339	0.00000	8.81	0.00	0.00	0.00000	0.000	1	0.00	0.00	-5.30	-1.41	5.30	1.41	0	0	0	0
74	189	0.005632	0.054084	0.01746	320.29	0.00	0.00	0.00000	0.000	1	0.00	0.00	9.03	-7.11	-9.02	5.33	0	0	0	0
240	74	0.004434	0.040670	0.01441	320.29	0.00	0.00	0.00000	0.000	1	0.00	0.00	14.34	-7.11	-14.33	5.70	0	0	0	0
77	76	0.000695	0.003313	0.00000	12.16	0.00	0.00	0.00000	0.000	1	0.00	0.00	-6.95	-1.85	6.95	1.86	0	0	0	0
452	76	0.002012	0.019322	0.00624	320.29	0.00	0.00	0.00000	0.000	1	0.00	0.00	117.23	-17.97	-116.95	19.95	0	0	0	0
79	78	0.000622	0.003279	0.00000	0.52	0.00	0.00	0.00000	0.000	1	0.00	0.00	-0.38	-0.10	0.38	0.10	0	0	0	0
78	328	0.005432	0.049829	0.01766	320.29	0.00	0.00	0.00000	0.000	1	0.00	0.00	157.75	16.75	-156.42	-6.29	0	0	0	0
78	387	0.002354	0.022609	0.00730	320.29	0.00	0.00	0.00000	0.000	1	0.00	0.00	-158.13	-16.85	158.71	21.67	0	0	0	0
81	80	0.000650	0.034810	0.00000	529.00	0.00	0.00	1.00000	0.000	1	0.00	0.00	-137.46	-11.07	137.58	17.36	0	0	0	0
82	80	0.000430	0.031130	0.00000	628.00	0.00	0.00	1.00000	0.000	1	0.00	0.00	361.90	41.10	-361.37	-2.92	0	0	0	0
407	80	0.000818	0.010825	0.22813	1493.89	0.00	0.00	0.00000	0.000	1	0.00	0.00	-158.19	23.82	158.39	-45.50	0	0	0	0
149	81	0.002879	0.026410	0.00936	320.29	0.00	0.00	0.00000	0.000	1	0.00	0.00	-65.84	-8.77	65.96	8.90	0	0	0	0
84	83	0.000638	0.003655	0.00000	105.41	0.00	0.00	0.00000	0.000	1	0.00	0.00	-61.41	-16.38	61.43	16.52	0	0	0	0
83	342	0.004116	0.039520	0.01276	320.29	0.00	0.00	0.00000	0.000	1	0.00	0.00	-47.43	-13.41	47.53	13.06	0	0	0	0
86	85	0.000652	0.003901	0.00000	30.04	0.00	0.00	0.00000	0.000	1	0.00	0.00	-17.59	-4.69	17.59	4.70	0	0	0	0
272	85	0.004412	0.040470	0.01434	320.29	0.00	0.00	0.00000	0.000	1	0.00	0.00	58.91	-12.82	-58.76	12.71	0	0	0	0
88	87	0.000623	0.003569	0.00000	7.69	0.00	0.00	0.00000	0.000	1	0.00	0.00	-5.25	-1.40	5.25	1.40	0	0	0	0
87	141	0.001846	0.017727	0.00572	320.29	0.00	0.00	0.00000	0.000	1	0.00	0.00	318.54	-21.99	-316.66	39.44	0	0	0	0
87	143	0.003820	0.035043	0.01242	320.29	0.00	0.00	0.00000	0.000	1	0.00	0.00	-290.70	-4.99	293.92	33.28	0	0	0	0
423	87	0.001836	0.017627	0.00569	320.29	0.00	0.00	0.00000	0.000	1	0.00	0.00	33.13	-25.84	-33.09	25.58	0	0	0	0
90	89	0.000554	0.003864	0.00000	10.48	0.00	0.00	0.00000	0.000	1	0.00	0.00	-5.90	-1.57	5.90	1.57	0	0	0	0
89	187	0.002116	0.020322	0.00656	320.29	0.00	0.00	0.00000	0.000	1	0.00	0.00	34.29	-0.29	-34.27	-0.15	0	0	0	0
89	457	0.009012	0.082666	0.02929	320.29	0.00	0.00	0.00000	0.000	1	0.00	0.00	-40.19	-1.28	40.33	-0.48	0	0	0	0
92	91	0.000572	0.003617	0.00000	104.24	0.00	0.00	0.00000	0.000	1	0.00	0.00	-65.03	-17.34	65.05	17.50	0	0	0	0
91	133	0.005040	0.048401	0.01562	320.29	0.00	0.00	0.00000	0.000	1	0.00	0.00	-2.93	-2.90	2.93	1.30	0	0	0	0
94	93	0.000536	0.003281	0.00000	8.18	0.00	0.00	0.00000	0.000	1	0.00	0.00	-5.21	-1.39	5.21	1.39	0	0	0	0
269	93	0.003921	0.035965	0.01275	320.29	0.00	0.00	0.00000	0.000	1	0.00	0.00	-41.63	4.78	41.70	-5.48	0	0	0	0
336	93	0.005795	0.053155	0.01884	320.29	0.00	0.00	0.00000	0.000	1	0.00	0.00	47.04	-4.89	-46.91	4.09	0	0	0	0
96	95	0.000563	0.003253	0.00000	56.18	0.00	0.00	0.00000	0.000	1	0.00	0.00	-34.00	-9.07	34.01	9.11	0	0	0	0
95	170	0.002111	0.020268	0.00654	320.29	0.00	0.00	0.00000	0.000	1	0.00	0.00	12.29	0.81	-12.28	-1.45	0	0	0	0
95	369	0.004094	0.039316	0.01269	320.29	0.00	0.00	0.00000	0.000	1	0.00	0.00	-46.29	-9.92	46.38	9.47	0	0	0	0
98	97	0.000569	0.003986	0.00000	66.43	0.00	0.00	0.00000	0.000	1	0.00	0.00	-37.09	-9.89	37.10	9.95	0	0	0	0
181	97	0.002992	0.028734	0.00928	320.29	0.00	0.00	0.00000	0.000	1	0.00	0.00	14.70	21.12	-14.68	-21.87	0	0	0	0
358	97	0.002676	0.024552	0.00870	320.29	0.00	0.00	0.00000	0.000	1	0.00	0.00	22.44	-12.64	-22.42	11.92	0	0	0	0
100	99	0.000644	0.003620	0.00000	22.69	0.00	0.00	0.00000	0.000	1	0.00	0.00	-13.52	-3.61	13.52	3.61	0	0	0	0
101	99	0.000699	0.003294	0.00000	1.37	0.00	0.00	0.00000	0.000	1	0.00	0.00	-0.89	-0.24	0.89	0.24	0	0	0	0
99	465	0.002689	0.025820	0.00834	320.29	0.00	0.00	0.00000	0.000	1	0.00	0.00	-9.35	-4.73	9.36	3.89	0	0	0	0
472	99	0.003318	0.031864	0.01029	320.29	0.00	0.00	0.00000	0.000	1	0.00	0.00	5.06	-1.95	-5.06	0.88	0	0	0	0
103	102	0.000614	0.003874	0.00000	64.60	0.00	0.00	0.00000	0.000	1	0.00	0.00	-38.80	-10.35	38.81	10.41	0	0	0	0
102	308	0.005650	0.054254	0.01751	320.29	0.00	0.00	0.00000	0.000	1	0.00	0.00	-67.20	-10.04	67.46	10.74	0	0	0	0
419	102	0.003638	0.034938	0.01128	320.29	0.00	0.00	0.00000	0.000	1	0.00	0.00	-28.36	-0.49	28.39	-0.37	0	0	0	0
105	104	0.000673	0.003751	0.00000	144.23	0.00	0.00	0.00000	0.000	1	0.00	0.00	-80.33	-21.42	80.38	21.67	0	0	0	0
104	191	0.005177	0.047485	0.01683	320.29	0.00	0.00	0.00000	0.000	1	0.00	0.00	-63.88	4.42	64.08	-4.28	0	0	0	0
107	106	0.000575	0.003206	0.00000	24.46	0.00	0.00	0.00000	0.000	1	0.00	0.00	-16.01	-4.27	16.01	4.28	0	0	0	0
106	191	0.004468	0.042904	0.01385	320.29	0.00	0.00	0.00000	0.000	1	0.00	0.00	41.40	-3.13	-41.33	2.40	0	0	0	0
236	106	0.003115	0.029915	0.00966	320.29	0.00	0.00	0.00000	0.000	1	0.00	0.00	57.51	1.09	-57.41	-1.15	0	0	0	0
109	108	0.000658	0.003010	0.00000	62.91	0.00	0.00	0.00000	0.000	1	0.00	0.00	-47.58	-12.69	47.60	12.76	0	0	0	0
108	472	0.002033	0.019521	0.00630	320.29	0.00	0.00	0.00000	0.000	1	0.00	0.00	-97.60	-24.61	97.80	25.87	0	0	0	0
108	495	0.003611	0.034672	0.01119	320.29	0.00	0.00	0.00000	0.000	1	0.00	0.00	50.00	11.85	-49.91	-12.10	0	0	0	0
111	110	0.000527	0.003708	0.00000	87.02	0.00	0.00	0.00000	0.000	1	0.00	0.00	-62.29	-16.61	62.31	16.76	0	0	0	0
274	110	0.003126	0.030018	0.00969	320.29	0.00	0.00	0.00000	0.000	1	0.00	0.00	-48.74	1.26	48.81	-1.61	0	0	0	0
110	316	0.003439	0.033025	0.01066	320.29	0.00	0.00	0.00000	0.000	1	0.00	0.00	-111.12	37.63	111.57	-34.43	0	0	0	0
113	112	0.000644	0.003119	0.00000	72.98	0.00	0.00	0.00000	0.000	1	0.00	0.00	-45.99	-12.26	46.00	12.33	0	0	0	0
193	112	0.002867	0.027534	0.00889	320.29	0.00	0.00	0.00000	0.000	1	0.00	0.00	-30.60	7.36	30.63	-8.01	0	0	0	0
112	236	0.006329	0.060777	0.01962	320.29	0.00	0.00	0.00000	0.000	1	0.00	0.00	0.22	-14.83	-0.21	12.90	0	0	0	0
112	283	0.008619	0.082760	0.02672	320.29	0.00	0.00	0.00000	0.000	1	0.00	0.00	10.94	-5.80	-10.93	3.16	0	0	0	0
372	112	0.002007	0.019267	0.00622	320.29	0.00	0.00	0.00000	0.000	1	0.00	0.00	151.50	11.58	-151.05	-7.94	0	0	0	0
112	499	0.005577	0.051155	0.01813	320.29	0.00	0.00	0.00000	0.000	1	0.00	0.00	54.73	14.91	-54.56	-15.14	0	0	0	0
115	114	0.000506	0.003360	0.00000	6.74	0.00	0.00	0.00000	0.000	1	0.00	0.00	-5.06	-1.35	5.06	1.35	0	0	0	0
116	114	0.000505	0.003411	0.00000	5.26	0.00	0.00	0.00000	0.000	1	0.00	0.00	-3.10	-0.83	3.10	0.83	0	0	0	0
114	191	0.005557	0.053364	0.01723	320.29	0.00	0.00	0.00000	0.000	1	0.00	0.00	-17.73	0.12	17.75	-1.75	0	0	0	0
114	312	0.006609	0.063462	0.02049	320.29	0.00	0.00	0.00000	0.000	1	0.00	0.00	9.57	-2.30	-9.57	0.22	0	0	0	0
118	117	0.000634	0.003851	0.00000	12.80	0.00	0.00	0.00000	0.000	1	0.00	0.00	-8.83	-2.36	8.83	2.36	0	0	0	0
117	426	0.003172	0.029099	0.01031	320.29	0.00	0.00	0.00000	0.000	1	0.00	0.00	-57.47	-21.23	57.59	21.25	0	0	0	0
490	117	0.002999	0.027508	0.00975	320.29	0.00	0.00	0.00000	0.000	1	0.00	0.00	-48.55	-19.10	48.64	18.87	0	0	0	0
120	119	0.000556	0.003059	0.00000	46.58	0.00	0.00	0.00000	0.000	1	0.00	0.00	-31.65	-8.44	31.66	8.47	0	0	0	0
119	129	0.002350	0.021554	0.00764	320.29	0.00	0.00	0.00000	0.000	1	0.00	0.00	41.62	8.52	-41.58	-8.86	0	0	0	0
253	119	0.001494	0.014350	0.00463	320.29	0.00	0.00	0.00000	0.000	1	0.00	0.00	73.36	17.37	-73.28	-16.99	0	0	0	0
122	121	0.000555	0.003846	0.00000	70.42	0.00	0.00	0.00000	0.000	1	0.00	0.00	-53.36	-14.23	53.38	14.34	0	0	0	0
121	276	0.002548	0.024463	0.00790	320.29	0.00	0.00	0.00000	0.000	1	0.00	0.00	-16.75	-15.30	16.77	14.61	0	0	0	0
121	287	0.007088	0.068058	0.02197	320.29	0.00	0.00	0.00000	0.000	1	0.00	0.00	-36.63	0.96	36.72	-2.32	0	0	0	0
124	123	0.000200	0.014380	0.00000	488.00	0.00	0.00	1.00000	0.000	1	0.00	0.00	-90.59	-15.61	90.61	16.76	0	0	0	0
125	123	0.000280	0.040640	0.00000	346.00	0.00	0.00	1.00000	0.000	1	0.00	0.00	0.00	0.00	0.00	-0.00	0	0	0	0
126	123	0.000150	0.021890	0.00000	352.00	0.00	0.00	1.00000	0.000	1	0.00	0.00	0.00	0.00	0.00	0.00	0	0	0	0
...
];

%% bus names
mpc.bus_name = {
'WINNSBORO 0';
'WINNSBORO 1';
'COLUMBIA 11 0';
'COLUMBIA 11 1';
'SMYRNA 0';
'SMYRNA 1';
'EASTOVER 2 0';
'EASTOVER 2 1';
'EASTOVER 2 2';
'CHAPPELLS 2 0';
'CHAPPELLS 2 1';
'PELZER 0';
'PELZER 1';
'SENECA 3 0';
'SENECA 3 1';
'SENECA 3 2';
'SENECA 3 3';
'SENECA 3 4';
'MONETTA 0';
'MONETTA 1';
'LEXINGTON 2 0';
'LEXINGTON 2 1';
'WELLFORD 0';
'WELLFORD 1';
'WELLFORD 2';
'WELLFORD 3';
'LAURENS 0';
'LAURENS 1';
'COLUMBIA 10 0';
'COLUMBIA 10 1';
'WINDSOR 0';
'WINDSOR 1';
'PROSPERITY 0';
'PROSPERITY 1';
'NORTH AUGUSTA 2 0';
'NORTH AUGUSTA 2 1';
'LANDO 0';
'LANDO 1';
'GAFFNEY 3 0';
'GAFFNEY 3 1';
'GAFFNEY 3 2';
'CLARKS HILL 2 0';
'CLARKS HILL 2 1';
'JENKINSVILLE 0';
'JENKINSVILLE 1';
'WOODRUFF 0';
'WOODRUFF 1';
'IVA 0';
'IVA 1';
'IVA 2';
'IVA 3';
'IVA 4';
'CAYCE 0';
'CAYCE 1';
'TROY 0';
'TROY 1';
'SIMPSONVILLE 2 0';
'SIMPSONVILLE 2 1';
'SIMPSONVILLE 2 2';
'MAYO 0';
'MAYO 1';
'BELTON 2 0';
'BELTON 2 1';
'BELTON 2 2';
'BRADLEY 0';
'BRADLEY 1';
'BRADLEY 2';
'ENOREE 0';
'ENOREE 1';
'HONEA PATH 2 0';
'HONEA PATH 2 1';
'HONEA PATH 2 2';
'HONEA PATH 2 3';
'SPRINGFIELD 0';
'SPRINGFIELD 1';
'EDGEMOOR 0';
'EDGEMOOR 1';
'NEWRY 0';
'NEWRY 1';
'CLARKS HILL 1 0';
'CLARKS HILL 1 1';
'CLARKS HILL 1 2';
'NEWBERRY 0';
'NEWBERRY 1';
'AIKEN 3 0';
'AIKEN 3 1';
'ROCK HILL 3 0';
'ROCK HILL 3 1';
'CAMERON 0';
'CAMERON 1';
'SENECA 2 0';
'SENECA 2 1';
'BLAIR 0';
'BLAIR 1';
'WALHALLA 0';
'WALHALLA 1';
'ANDERSON 4 0';
'ANDERSON 4 1';
'PACOLET 0';
'PACOLET 1';
'PACOLET 2';
'ABBEVILLE 0';
'ABBEVILLE 1';
'AIKEN 2 0';
'AIKEN 2 1';
'JOHNSTON 0';
'JOHNSTON 1';
'SPARTANBURG 6 0';
'SPARTANBURG 6 1';
'GAFFNEY 2 0';
'GAFFNEY 2 1';
'LEESVILLE 0';
'LEESVILLE 1';
'LANGLEY 0';
'LANGLEY 1';
'LANGLEY 2';
'DONALDS 0';
'DONALDS 1';
'GREENVILLE 7 0';
'GREENVILLE 7 1';
'COLUMBIA 9 0';
'COLUMBIA 9 1';
'SALEM 3 0';
'SALEM 3 1';
'SALEM 3 2';
'SALEM 3 3';
'SALEM 3 4';
'SALEM 3 5';
'GREENVILLE 6 0';
'GREENVILLE 6 1';
'COWPENS 0';
'COWPENS 1';
'WESTMINSTER 2 0';
'WESTMINSTER 2 1';
'SAINT MATTHEWS 0';
'SAINT MATTHEWS 1';
'GREENWOOD 2 0';
'GREENWOOD 2 1';
'FINGERVILLE 0';
'FINGERVILLE 1';
'ROCK HILL 2 0';
'ROCK HILL 2 1';
'YORK 2 0';
'YORK 2 1';
'YORK 2 2';
'CHAPIN 0';
'CHAPIN 1';
'CHAPIN 2';
'MODOC 0';
'MODOC 1';
'SPARTANBURG 5 0';
'SPARTANBURG 5 1';
'SPARTANBURG 5 2';
'BOILING SPRINGS 0';
'BOILING SPRINGS 1';
'GREENVILLE 5 0';
'GREENVILLE 5 1';
'PELION 0';
'PELION 1';
'GRANITEVILLE 0';
'GRANITEVILLE 1';
'IRMO 0';
'IRMO 1';
'IRMO 2';
'SALEM 2 0';
'SALEM 2 1';
'SALEM 2 2';
'SALEM 2 3';
'SALEM 2 4';
'WEST UNION 0';
'WEST UNION 1';
'CROSS HILL 0';
'CROSS HILL 1';
'CROSS HILL 2';
'FORT LAWN 0';
'FORT LAWN 1';
'FORT LAWN 2';
'FORT LAWN 3';
'NORTH 0';
'NORTH 1';
'ANDERSON 3 0';
'ANDERSON 3 1';
'BLACKSBURG 2 0';
'BLACKSBURG 2 1';
'LIBERTY 0';
'LIBERTY 1';
'ELLOREE 0';
'ELLOREE 1';
'WAGENER 0';
'WAGENER 1';
'TRENTON 0';
'TRENTON 1';
'BATESBURG 0';
'BATESBURG 1';
'COLUMBIA 8 0';
'COLUMBIA 8 1';
'COLUMBIA 8 2';
'COLUMBIA 8 3';
'COLUMBIA 8 4';
'LITTLE MOUNTAIN 0';
'LITTLE MOUNTAIN 1';
'CLINTON 0';
'CLINTON 1';
'CLINTON 2';
'WARRENVILLE 0';
'WARRENVILLE 1';
'WARRENVILLE 2';
'SIMPSONVILLE 1 0';
'SIMPSONVILLE 1 1';
'DUNCAN 0';
'DUNCAN 1';
'NORTH AUGUSTA 1 0';
'NORTH AUGUSTA 1 1';
'GREENWOOD 1 0';
'GREENWOOD 1 1';
'BELTON 1 0';
'BELTON 1 1';
'VAUCLUSE 0';
'VAUCLUSE 1';
'UNION 3 0';
'UNION 3 1';
'UNION 3 2';
'UNION 3 3';
'UNION 3 4';
'UNION 3 5';
'MOUNTAIN REST 0';
'MOUNTAIN REST 1';
'PICKENS 0';
'PICKENS 1';
'WESTMINSTER 1 0';
'WESTMINSTER 1 1';
'WEST COLUMBIA 3 0';
'WEST COLUMBIA 3 1';
'WEST COLUMBIA 3 2';
'WARD 0';
'WARD 1';
'WARD 2';
'MOORE 0';
'MOORE 1';
'WILLISTON 0';
'WILLISTON 1';
'COLUMBIA 7 0';
'COLUMBIA 7 1';
'WATERLOO 0';
'WATERLOO 1';
'BLACKSBURG 1 0';
'BLACKSBURG 1 1';
'BLACKSBURG 1 2';
'BLACKSBURG 1 3';
'BLACKSBURG 1 4';
'TAYLORS 0';
'TAYLORS 1';
'GREENVILLE 4 0';
'GREENVILLE 4 1';
'GREENVILLE 4 2';
'GREENVILLE 4 3';
'GREENVILLE 4 4';
'GREENVILLE 4 5';
'GREENVILLE 4 6';
'SALEM 1 0';
'SALEM 1 1';
'COLUMBIA 6 0';
'COLUMBIA 6 1';
'COLUMBIA 6 2';
'COLUMBIA 6 3';
'COLUMBIA 6 4';
'AIKEN 1 0';
'AIKEN 1 1';
'POMARIA 0';
'POMARIA 1';
'RIDGE SPRING 0';
'RIDGE SPRING 1';
'RIDGE SPRING 2';
'GAFFNEY 1 0';
'GAFFNEY 1 1';
'COLUMBIA 5 0';
'COLUMBIA 5 1';
'COLUMBIA 5 2';
'MARIETTA 0';
'MARIETTA 1';
'ANDERSON 2 0';
'ANDERSON 2 1';
'SALUDA 0';
'SALUDA 1';
'FAIR PLAY 0';
'FAIR PLAY 1';
'HOPKINS 0';
'HOPKINS 1';
'SUNSET 0';
'SUNSET 1';
'SALLEY 0';
'SALLEY 1';
'EDGEFIELD 0';
'EDGEFIELD 1';
'BUFFALO 0';
'BUFFALO 1';
'WARE SHOALS 0';
'WARE SHOALS 1';
'WARE SHOALS 2';
'YORK 1 0';
'YORK 1 1';
'YORK 1 2';
'YORK 1 3';
'PIEDMONT 0';
'PIEDMONT 1';
'PIEDMONT 2';
'PIEDMONT 3';
'CALHOUN FALLS 0';
'CALHOUN FALLS 1';
'ANDERSON 1 0';
'ANDERSON 1 1';
'JACKSON 0';
'JACKSON 1';
'CROSS ANCHOR 0';
'CROSS ANCHOR 1';
'HICKORY GROVE 0';
'HICKORY GROVE 1';
'GREAT FALLS 2 0';
'GREAT FALLS 2 1';
'COLUMBIA 4 0';
'COLUMBIA 4 1';
'MAULDIN 0';
'MAULDIN 1';
'GREENVILLE 3 0';
'GREENVILLE 3 1';
'COLUMBIA 3 0';
'COLUMBIA 3 1';
'PENDLETON 0';
'PENDLETON 1';
'SPARTANBURG 4 0';
'SPARTANBURG 4 1';
'CONVERSE 0';
'CONVERSE 1';
'CONVERSE 2';
'CONVERSE 3';
'BLACKSTOCK 0';
'BLACKSTOCK 1';
'FORT MILL 3 0';
'FORT MILL 3 1';
'LANDRUM 0';
'LANDRUM 1';
'SILVERSTREET 0';
'SILVERSTREET 1';
'SILVERSTREET 2';
'ORANGEBURG 0';
'ORANGEBURG 1';
'GREENVILLE 2 0';
'GREENVILLE 2 1';
'CHAPPELLS 1 0';
'CHAPPELLS 1 1';
'CHAPPELLS 1 2';
'CHAPPELLS 1 3';
'CHAPPELLS 1 4';
'RIDGEWAY 2 0';
'RIDGEWAY 2 1';
'FOUNTAIN INN 0';
'FOUNTAIN INN 1';
'STARR 0';
'STARR 1';
'SPARTANBURG 3 0';
'SPARTANBURG 3 1';
'SPARTANBURG 3 2';
'SPARTANBURG 3 3';
'SPARTANBURG 3 4';
'GASTON 2 0';
'GASTON 2 1';
'SIX MILE 0';
'SIX MILE 1';
'SENECA 1 0';
'SENECA 1 1';
'GILBERT 0';
'GILBERT 1';
'GILBERT 2';
'SWANSEA 0';
'SWANSEA 1';
'INMAN 0';
'INMAN 1';
'GREAT FALLS 1 0';
'GREAT FALLS 1 1';
'WHITMIRE 0';
'WHITMIRE 1';
'GRAY COURT 0';
'GRAY COURT 1';
'WILLIAMSTON 2 0';
'WILLIAMSTON 2 1';
'CLEMSON 0';
'CLEMSON 1';
'CLEMSON 2';
'CLEMSON 3';
'CLEMSON 4';
'CLEMSON 5';
'CLEMSON 6';
'CLEMSON 7';
'CLEMSON 8';
'CLEMSON 9';
'CLEMSON 10';
'CLEMSON 11';
'CLEMSON 12';
'BEECH ISLAND 2 0';
'BEECH ISLAND 2 1';
'CLOVER 0';
'CLOVER 1';
'NINETY SIX 0';
'NINETY SIX 1';
'MC CONNELLS 0';
'MC CONNELLS 1';
'BEECH ISLAND 1 0';
'BEECH ISLAND 1 1';
'BEECH ISLAND 1 2';
'BEECH ISLAND 1 3';
'BEECH ISLAND 1 4';
'BEECH ISLAND 1 5';
'BEECH ISLAND 1 6';
'BEECH ISLAND 1 7';
'GADSDEN 0';
'GADSDEN 1';
'TRAVELERS REST 0';
'TRAVELERS REST 1';
'DUE WEST 0';
'DUE WEST 1';
'BLYTHEWOOD 0';
'BLYTHEWOOD 1';
'ROCK HILL 1 0';
'ROCK HILL 1 1';
'HODGES 0';
'HODGES 1';
'HODGES 2';
'CHESNEE 2 0';
'CHESNEE 2 1';
'CHESNEE 2 2';
'CHESNEE 2 3';
'CHESNEE 2 4';
'CHESNEE 2 5';
'CHESNEE 2 6';
'CHESNEE 2 7';
'CHESNEE 2 8';
'CHESNEE 2 9';
'CHESNEE 2 10';
'CHESNEE 2 11';
'WILLIAMSTON 1 0';
'WILLIAMSTON 1 1';
'WILLIAMSTON 1 2';
'WILLIAMSTON 1 3';
'WILLIAMSTON 1 4';
'EASLEY 2 0';
'EASLEY 2 1';
'UNION 2 0';
'UNION 2 1';
'ARCADIA 0';
'ARCADIA 1';
'ARCADIA 2';
'CATAWBA 0';
'GASTON 1 0';
'GASTON 1 1';
'GASTON 1 2';
'GASTON 1 3';
'EASTOVER 1 0';
'EASTOVER 1 1';
'FORT MILL 2 0';
'CAMPOBELLO 0';
'EASLEY 1 0';
'UNION 1 0';
'UNION 1 1';
'JONESVILLE 0';
'JONESVILLE 1';
'CHESNEE 1 0';
'NORRIS 0';
'CLEVELAND 0';
'GREER 2 0';
'CENTRAL 0';
'SPARTANBURG 2 0';
'SPARTANBURG 2 1';
'LONG CREEK 0';
'GREENVILLE 1 0';
'PEAK 0';
'COLUMBIA 2 0';
'ROEBUCK 0';
'SHARON 0';
'RIDGEWAY 1 0';
'RIDGEWAY 1 1';
'RIDGEWAY 1 2';
'RIDGEWAY 1 3';
'RIDGEWAY 1 4';
'RIDGEWAY 1 5';
'WEST COLUMBIA 2 0';
'WEST COLUMBIA 1 0';
'TOWNVILLE 0';
'GREER 1 0';
'PLUM BRANCH 0';
'HONEA PATH 1 0';
'COLUMBIA 1 0';
'CHESTER 0';
'CARLISLE 0';
'CARLISLE 1';
'SPARTANBURG 1 0';
'FORT MILL 1 0';
'FORT MILL 1 1';
'FORT MILL 1 2';
'LEXINGTON 1 0';
'MC CORMICK 0';
};
